# CIF file generated by openbabel 3.1.1, see https://openbabel.org
data_I
_chemical_name_common '3.01-95.aims'
_cell_length_a 39.8744
_cell_length_b 39.8744
_cell_length_c 39.8744
_cell_angle_alpha 90
_cell_angle_beta 90
_cell_angle_gamma 90
loop_
    _atom_site_label
    _atom_site_type_symbol
    _atom_site_fract_x
    _atom_site_fract_y
    _atom_site_fract_z
    _atom_site_occupancy
    N0       N        0.04744    0.03489    0.02824    1.000
    Si1      Si       0.00840    0.03834    0.05492    1.000
    N2       N        0.09964    0.05470    0.07875    1.000
    Si3      Si       0.10078    0.01739    0.10235    1.000
    Si4      Si       0.06676    0.06568    0.04865    1.000
    Si5      Si       0.20194    0.05190    0.07971    1.000
    N6       N        0.17208    0.04661    0.04792    1.000
    Si7      Si       0.18687    0.03333    0.00888    1.000
    N8       N        0.20553    0.01890    0.10630    1.000
    Si9      Si       0.13562    0.06883    0.05905    1.000
    N10      N        0.06560    0.01727    0.12758    1.000
    N11      N        0.03519    0.02400    0.19394    1.000
    Si12     Si       0.07554    0.03740    0.20945    1.000
    Si13     Si       0.03111    0.03024    0.15154    1.000
    N14      N        0.06386    0.06193    0.24436    1.000
    N15      N        0.18214    0.01221    0.23890    1.000
    Si16     Si       0.16030    0.04980    0.23792    1.000
    N17      N        0.12395    0.04996    0.21137    1.000
    N18      N        0.18515    0.02629    0.17300    1.000
    N19      N        0.02591    0.02725    0.32707    1.000
    Si20     Si       0.06514    0.04806    0.31968    1.000
    Si21     Si       0.00708    0.01900    0.28901    1.000
    N22      N        0.99763    0.05657    0.26989    1.000
    N23      N        0.08275    0.01666    0.29576    1.000
    N24      N        0.07339    0.05486    0.36202    1.000
    Si25     Si       0.02832    0.01412    0.36915    1.000
    N26      N        0.13226    0.03435    0.34105    1.000
    Si27     Si       0.21534    0.02856    0.30328    1.000
    N28      N        0.13643    0.05029    0.27784    1.000
    Si29     Si       0.12480    0.01532    0.30047    1.000
    N30      N        0.19468    0.06467    0.31197    1.000
    Si31     Si       0.15209    0.06627    0.31519    1.000
    Si32     Si       0.10701    0.03091    0.37860    1.000
    N33      N        0.06779    0.03100    0.48461    1.000
    N34      N        0.02004    0.05244    0.39791    1.000
    N35      N        0.99714    0.04527    0.47865    1.000
    N36      N        0.10176    0.05658    0.41652    1.000
    Si37     Si       0.02732    0.01328    0.48271    1.000
    Si38     Si       0.10421    0.01074    0.47535    1.000
    Si39     Si       0.06178    0.07036    0.40132    1.000
    N40      N        0.14351    0.03266    0.48830    1.000
    Si41     Si       0.17628    0.02949    0.46017    1.000
    N42      N        0.21629    0.04060    0.47234    1.000
    Si43     Si       0.23449    0.06105    0.43795    1.000
    N44      N        0.16848    0.04640    0.41904    1.000
    N45      N        0.04916    0.04647    0.54986    1.000
    Si46     Si       0.06408    0.06272    0.51255    1.000
    Si47     Si       0.03482    0.00624    0.55521    1.000
    Si48     Si       0.18569    0.05796    0.55938    1.000
    N49      N        0.22181    0.03531    0.54751    1.000
    N50      N        0.15694    0.02294    0.56262    1.000
    N51      N        0.19240    0.01437    0.62237    1.000
    N52      N        0.09076    0.03980    0.63197    1.000
    N53      N        0.03075    0.02899    0.73595    1.000
    N54      N        0.02898    0.02461    0.66490    1.000
    Si55     Si       0.01879    0.04913    0.69827    1.000
    Si56     Si       0.05068    0.05541    0.64618    1.000
    N57      N        0.15400    0.06483    0.64306    1.000
    Si58     Si       0.13112    0.02415    0.71267    1.000
    N59      N        0.16564    0.01348    0.73843    1.000
    Si60     Si       0.19465    0.05599    0.63191    1.000
    N61      N        0.23158    0.06494    0.65540    1.000
    Si62     Si       0.02765    0.02951    0.81099    1.000
    Si63     Si       0.06964    0.03069    0.75712    1.000
    N64      N        0.99109    0.01912    0.78880    1.000
    N65      N        0.06200    0.00857    0.79392    1.000
    Si66     Si       0.11400    0.06638    0.86892    1.000
    N67      N        0.03141    0.01300    0.85047    1.000
    Si68     Si       0.99659    0.00432    0.74833    1.000
    Si69     Si       0.22770    0.04355    0.81732    1.000
    N70      N        0.16565    0.04763    0.79595    1.000
    Si71     Si       0.18847    0.04467    0.75945    1.000
    N72      N        0.14440    0.03349    0.86440    1.000
    N73      N        0.22358    0.02609    0.77831    1.000
    Si74     Si       0.15264    0.01647    0.82235    1.000
    N75      N        0.20881    0.05958    0.85675    1.000
    Si76     Si       0.05429    0.02010    0.98643    1.000
    N77      N        0.08131    0.05031    0.97212    1.000
    Si78     Si       0.04204    0.03305    0.89019    1.000
    N79      N        0.01499    0.02141    0.96510    1.000
    N80      N        0.00487    0.05393    0.90272    1.000
    Si81     Si       0.00199    0.05848    0.94561    1.000
    N82      N        0.07420    0.06051    0.88844    1.000
    N83      N        0.18563    0.03049    0.91752    1.000
    Si84     Si       0.12281    0.05834    0.98084    1.000
    N85      N        0.20707    0.06078    0.98097    1.000
    Si86     Si       0.21936    0.04661    0.94045    1.000
    Si87     Si       0.18693    0.02568    0.87508    1.000
    N88      N        0.15209    0.02616    0.98227    1.000
    N89      N        0.06373    0.10525    0.02261    1.000
    N90      N        0.02551    0.07965    0.06726    1.000
    Si91     Si       0.02884    0.12016    0.04656    1.000
    Si92     Si       0.10788    0.11910    0.03202    1.000
    Si93     Si       0.99841    0.08263    0.10334    1.000
    N94      N        0.11711    0.07594    0.02047    1.000
    N95      N        0.19749    0.09084    0.09733    1.000
    N96      N        0.14057    0.11174    0.06668    1.000
    N97      N        0.19555    0.12166    0.02328    1.000
    Si98     Si       0.17925    0.12738    0.08009    1.000
    N99      N        0.01339    0.08931    0.20683    1.000
    Si100    Si       0.03697    0.09220    0.16983    1.000
    N101     N        0.07642    0.07286    0.18092    1.000
    N102     N        0.02168    0.06899    0.13778    1.000
    N103     N        0.22435    0.08135    0.15902    1.000
    N104     N        0.11609    0.10694    0.23791    1.000
    N105     N        0.18767    0.07825    0.22106    1.000
    Si106    Si       0.21080    0.11570    0.23407    1.000
    Si107    Si       0.22752    0.10969    0.12430    1.000
    Si108    Si       0.11344    0.09196    0.19547    1.000
    Si109    Si       0.18535    0.07135    0.17805    1.000
    N110     N        0.14946    0.09576    0.16917    1.000
    N111     N        0.08538    0.08592    0.30259    1.000
    Si112    Si       0.09964    0.07620    0.26253    1.000
    N113     N        0.02833    0.11888    0.26890    1.000
    Si114    Si       0.10442    0.12202    0.31975    1.000
    Si115    Si       0.02547    0.08205    0.24746    1.000
    N116     N        0.14380    0.10752    0.32726    1.000
    Si117    Si       0.21594    0.10204    0.31996    1.000
    N118     N        0.21197    0.11861    0.27931    1.000
    N119     N        0.20235    0.12069    0.35961    1.000
    N120     N        0.00557    0.12649    0.45449    1.000
    Si121    Si       0.99878    0.08916    0.47568    1.000
    N122     N        0.06059    0.11185    0.40954    1.000
    N123     N        0.99616    0.11741    0.38981    1.000
    N124     N        0.13628    0.11317    0.39711    1.000
    Si125    Si       0.13900    0.07790    0.42293    1.000
    Si126    Si       0.23103    0.12317    0.39357    1.000
    N127     N        0.15176    0.09749    0.46197    1.000
    N128     N        0.21503    0.10319    0.43022    1.000
    N129     N        0.10360    0.08256    0.51717    1.000
    Si130    Si       0.00084    0.10641    0.61135    1.000
    Si131    Si       0.06178    0.07860    0.57856    1.000
    N132     N        0.10500    0.08534    0.58336    1.000
    N133     N        0.05912    0.11864    0.55815    1.000
    N134     N        0.03723    0.08109    0.61311    1.000
    Si135    Si       0.10271    0.11214    0.54874    1.000
    N136     N        0.03747    0.09452    0.49893    1.000
    N137     N        0.17549    0.08498    0.52698    1.000
    Si138    Si       0.20771    0.11379    0.52213    1.000
    N139     N        0.19735    0.07999    0.59421    1.000
    Si140    Si       0.20093    0.12293    0.59553    1.000
    Si141    Si       0.11691    0.07340    0.62186    1.000
    Si142    Si       0.14349    0.07629    0.49857    1.000
    N143     N        0.05032    0.07844    0.68431    1.000
    N144     N        0.10978    0.10722    0.65118    1.000
    Si145    Si       0.05668    0.12041    0.69837    1.000
    N146     N        0.08666    0.12307    0.73042    1.000
    Si147    Si       0.11456    0.09083    0.74204    1.000
    N148     N        0.13022    0.06877    0.70983    1.000
    N149     N        0.20467    0.08014    0.73898    1.000
    Si150    Si       0.19788    0.11660    0.71625    1.000
    N151     N        0.17303    0.12030    0.68100    1.000
    Si152    Si       0.14206    0.09122    0.67514    1.000
    Si153    Si       0.07890    0.08727    0.80372    1.000
    Si154    Si       0.99996    0.09496    0.80831    1.000
    N155     N        0.03870    0.07286    0.80832    1.000
    N156     N        0.11323    0.08005    0.82989    1.000
    N157     N        0.08801    0.06776    0.76588    1.000
    Si158    Si       0.21052    0.10349    0.84998    1.000
    N159     N        0.14122    0.10893    0.77007    1.000
    Si160    Si       0.14933    0.08557    0.80688    1.000
    N161     N        0.17818    0.11850    0.82116    1.000
    N162     N        0.23504    0.08722    0.80868    1.000
    Si163    Si       0.08040    0.10150    0.90924    1.000
    Si164    Si       0.06253    0.08961    0.98186    1.000
    N165     N        0.01965    0.08917    0.97080    1.000
    N166     N        0.08579    0.11269    0.95185    1.000
    Si167    Si       0.99146    0.11952    0.98468    1.000
    Si168    Si       0.18982    0.09904    0.98492    1.000
    N169     N        0.14810    0.09068    0.96726    1.000
    N170     N        0.12361    0.09697    0.89881    1.000
    N171     N        0.19193    0.11411    0.89151    1.000
    Si172    Si       0.22426    0.11535    0.92019    1.000
    N173     N        0.02769    0.15263    0.07668    1.000
    N174     N        0.09554    0.15792    0.05505    1.000
    N175     N        0.01085    0.14462    0.01399    1.000
    Si176    Si       0.10089    0.18122    0.00978    1.000
    Si177    Si       0.05474    0.18320    0.06209    1.000
    Si178    Si       0.01736    0.18683    0.00589    1.000
    N179     N        0.10267    0.13879    0.12132    1.000
    Si180    Si       0.98803    0.15969    0.09458    1.000
    Si181    Si       0.12742    0.15355    0.08703    1.000
    N182     N        0.16982    0.17039    0.05847    1.000
    Si183    Si       0.16924    0.15784    0.01887    1.000
    N184     N        0.22243    0.14217    0.07813    1.000
    N185     N        0.12897    0.14625    0.00316    1.000
    Si186    Si       0.23635    0.13321    0.03848    1.000
    N187     N        0.16574    0.14596    0.11766    1.000
    N188     N        0.10192    0.13578    0.18309    1.000
    Si189    Si       0.07574    0.15340    0.15367    1.000
    Si190    Si       0.10300    0.14684    0.22499    1.000
    N191     N        0.06248    0.15796    0.23089    1.000
    Si192    Si       0.00013    0.16015    0.16882    1.000
    N193     N        0.03687    0.13515    0.16093    1.000
    N194     N        0.99153    0.18186    0.13224    1.000
    N195     N        0.01253    0.18861    0.20022    1.000
    N196     N        0.15543    0.17290    0.17117    1.000
    N197     N        0.23271    0.14455    0.15106    1.000
    N198     N        0.19015    0.15461    0.22957    1.000
    Si199    Si       0.13793    0.13432    0.15246    1.000
    N200     N        0.12656    0.18179    0.23556    1.000
    Si201    Si       0.16446    0.18386    0.21121    1.000
    Si202    Si       0.05977    0.16958    0.34791    1.000
    N203     N        0.03159    0.15508    0.31766    1.000
    N204     N        0.09904    0.15454    0.29131    1.000
    Si205    Si       0.05650    0.15233    0.27639    1.000
    N206     N        0.08946    0.13949    0.35610    1.000
    Si207    Si       0.00102    0.14505    0.35579    1.000
    Si208    Si       0.99851    0.13914    0.29228    1.000
    Si209    Si       0.20477    0.16111    0.27181    1.000
    N210     N        0.15789    0.16947    0.36619    1.000
    N211     N        0.17195    0.17598    0.29508    1.000
    Si212    Si       0.13160    0.18035    0.27844    1.000
    Si213    Si       0.15878    0.12643    0.36266    1.000
    N214     N        0.03186    0.16594    0.38206    1.000
    Si215    Si       0.00293    0.16411    0.47201    1.000
    N216     N        0.10371    0.16506    0.42366    1.000
    Si217    Si       0.07610    0.17807    0.45542    1.000
    Si218    Si       0.02588    0.13637    0.41654    1.000
    N219     N        0.03299    0.18047    0.44486    1.000
    Si220    Si       0.09774    0.13022    0.39652    1.000
    N221     N        0.07439    0.15877    0.49553    1.000
    Si222    Si       0.14204    0.17981    0.40614    1.000
    N223     N        0.20058    0.14210    0.48970    1.000
    Si224    Si       0.23244    0.17304    0.48433    1.000
    N225     N        0.17447    0.16132    0.43127    1.000
    Si226    Si       0.18400    0.12432    0.45349    1.000
    N227     N        0.00763    0.15397    0.51615    1.000
    N228     N        0.09215    0.15968    0.60729    1.000
    Si229    Si       0.05513    0.15380    0.58637    1.000
    N230     N        0.02190    0.15060    0.61449    1.000
    Si231    Si       0.04579    0.13332    0.51786    1.000
    Si232    Si       0.08944    0.18032    0.53088    1.000
    N233     N        0.05150    0.18029    0.55192    1.000
    N234     N        0.11771    0.15122    0.54741    1.000
    Si235    Si       0.13187    0.16149    0.58675    1.000
    N236     N        0.16208    0.13781    0.60548    1.000
    N237     N        0.21850    0.13688    0.55758    1.000
    N238     N        0.06803    0.15728    0.67639    1.000
    Si239    Si       0.10039    0.14957    0.64867    1.000
    N240     N        0.01724    0.13022    0.71583    1.000
    Si241    Si       0.17500    0.14950    0.64783    1.000
    N242     N        0.13702    0.17116    0.65935    1.000
    N243     N        0.22091    0.13295    0.63313    1.000
    N244     N        0.19419    0.14937    0.74295    1.000
    Si245    Si       0.23538    0.17616    0.63160    1.000
    Si246    Si       0.04316    0.15054    0.81720    1.000
    N247     N        0.03554    0.16218    0.77234    1.000
    Si248    Si       0.07681    0.15360    0.76059    1.000
    N249     N        0.07884    0.13126    0.80037    1.000
    Si250    Si       0.00177    0.14658    0.75299    1.000
    N251     N        0.01011    0.12790    0.83400    1.000
    N252     N        0.04438    0.18532    0.84145    1.000
    N253     N        0.23364    0.15863    0.79544    1.000
    Si254    Si       0.17208    0.13717    0.77866    1.000
    Si255    Si       0.16863    0.15849    0.83555    1.000
    N256     N        0.15596    0.17549    0.79737    1.000
    N257     N        0.13896    0.15364    0.86524    1.000
    Si258    Si       0.23517    0.17520    0.83436    1.000
    Si259    Si       0.22097    0.18021    0.75886    1.000
    N260     N        0.05947    0.13271    0.89015    1.000
    Si261    Si       0.04377    0.17239    0.88380    1.000
    N262     N        0.99837    0.17414    0.89239    1.000
    N263     N        0.02431    0.18841    0.96112    1.000
    Si264    Si       0.98964    0.17591    0.93691    1.000
    N265     N        0.19432    0.18485    0.99719    1.000
    Si266    Si       0.15272    0.12874    0.89852    1.000
    Si267    Si       0.12581    0.12813    0.96263    1.000
    Si268    Si       0.22680    0.16230    0.97607    1.000
    N269     N        0.14295    0.15335    0.93372    1.000
    N270     N        0.20884    0.12681    0.95801    1.000
    N271     N        0.07210    0.21894    0.08019    1.000
    N272     N        0.01402    0.20973    0.05437    1.000
    Si273    Si       0.09903    0.21796    0.11434    1.000
    N274     N        0.05843    0.19193    0.01749    1.000
    Si275    Si       0.03216    0.24162    0.07736    1.000
    N276     N        0.13085    0.20950    0.02700    1.000
    Si277    Si       0.15355    0.21459    0.06574    1.000
    N278     N        0.19373    0.22759    0.06987    1.000
    N279     N        0.13376    0.19753    0.10091    1.000
    N280     N        0.23379    0.23408    0.01142    1.000
    Si281    Si       0.21160    0.18547    0.07644    1.000
    N282     N        0.07819    0.22696    0.21200    1.000
    N283     N        0.07691    0.19622    0.14827    1.000
    Si284    Si       0.04566    0.19812    0.22493    1.000
    Si285    Si       0.07918    0.23590    0.16755    1.000
    N286     N        0.01922    0.24050    0.23382    1.000
    N287     N        0.20897    0.19795    0.12061    1.000
    Si288    Si       0.16709    0.19394    0.13297    1.000
    N289     N        0.22744    0.23709    0.17358    1.000
    N290     N        0.16134    0.22850    0.21091    1.000
    Si291    Si       0.11907    0.23090    0.22952    1.000
    N292     N        0.16932    0.23855    0.13999    1.000
    N293     N        0.07055    0.21003    0.33745    1.000
    Si294    Si       0.07950    0.22184    0.29691    1.000
    N295     N        0.05092    0.19804    0.27185    1.000
    Si296    Si       0.02350    0.23209    0.27620    1.000
    Si297    Si       0.05318    0.24100    0.36115    1.000
    N298     N        0.01185    0.22896    0.36633    1.000
    N299     N        0.99026    0.22050    0.29910    1.000
    N300     N        0.11864    0.22294    0.28129    1.000
    N301     N        0.15889    0.23400    0.34053    1.000
    N302     N        0.22312    0.19665    0.33669    1.000
    Si303    Si       0.17956    0.19486    0.33628    1.000
    Si304    Si       0.23508    0.22587    0.36681    1.000
    N305     N        0.08982    0.21920    0.46341    1.000
    Si306    Si       0.02158    0.20829    0.40542    1.000
    N307     N        0.06360    0.22602    0.40236    1.000
    Si308    Si       0.09799    0.23713    0.42565    1.000
    N309     N        0.99880    0.23757    0.42905    1.000
    N310     N        0.22328    0.20666    0.45909    1.000
    N311     N        0.13498    0.22329    0.40716    1.000
    Si312    Si       0.20957    0.18858    0.42249    1.000
    N313     N        0.20211    0.22185    0.39521    1.000
    Si314    Si       0.16412    0.24305    0.38218    1.000
    Si315    Si       0.01517    0.19497    0.53482    1.000
    N316     N        0.09943    0.22262    0.53001    1.000
    N317     N        0.01461    0.22426    0.50141    1.000
    Si318    Si       0.99577    0.23424    0.59048    1.000
    Si319    Si       0.12226    0.23299    0.56703    1.000
    N320     N        0.14629    0.20303    0.58639    1.000
    Si321    Si       0.17504    0.21763    0.61424    1.000
    N322     N        0.20467    0.23940    0.59165    1.000
    N323     N        0.09893    0.22285    0.67382    1.000
    Si324    Si       0.07272    0.19541    0.69523    1.000
    N325     N        0.03565    0.21783    0.69319    1.000
    Si326    Si       0.00727    0.21750    0.65771    1.000
    N327     N        0.08552    0.18940    0.73686    1.000
    N328     N        0.19599    0.18902    0.63918    1.000
    N329     N        0.16911    0.22209    0.70213    1.000
    Si330    Si       0.14198    0.21266    0.67323    1.000
    Si331    Si       0.17588    0.23942    0.74015    1.000
    Si332    Si       0.06132    0.22256    0.82740    1.000
    N333     N        0.09414    0.21125    0.80092    1.000
    Si334    Si       0.09256    0.22689    0.75891    1.000
    N335     N        0.07996    0.24226    0.85952    1.000
    N336     N        0.02762    0.24640    0.81520    1.000
    N337     N        0.20989    0.22235    0.76278    1.000
    Si338    Si       0.13811    0.21432    0.79848    1.000
    N339     N        0.13800    0.23290    0.75996    1.000
    Si340    Si       0.16986    0.22261    0.86473    1.000
    N341     N        0.19614    0.18869    0.85105    1.000
    N342     N        0.15354    0.24123    0.82683    1.000
    N343     N        0.10245    0.19676    0.96603    1.000
    N344     N        0.06292    0.20076    0.90827    1.000
    Si345    Si       0.06125    0.20703    0.95215    1.000
    N346     N        0.01608    0.24489    0.88404    1.000
    N347     N        0.23675    0.19660    0.95414    1.000
    N348     N        0.14639    0.21855    0.90061    1.000
    N349     N        0.16232    0.22593    0.95969    1.000
    Si350    Si       0.13545    0.19632    0.93748    1.000
    Si351    Si       0.20515    0.22367    0.97680    1.000
    Si352    Si       0.13910    0.23665    0.99578    1.000
    N353     N        0.05350    0.27248    0.05585    1.000
    N354     N        0.00474    0.25913    0.10583    1.000
    N355     N        0.10449    0.26317    0.01113    1.000
    Si356    Si       0.09135    0.25172    0.05123    1.000
    N357     N        0.02412    0.29795    0.99830    1.000
    Si358    Si       0.20479    0.24491    0.11077    1.000
    N359     N        0.17279    0.26019    0.01078    1.000
    N360     N        0.18549    0.28488    0.10351    1.000
    Si361    Si       0.20837    0.25469    0.03901    1.000
    N362     N        0.12944    0.25363    0.07475    1.000
    Si363    Si       0.14442    0.26981    0.11721    1.000
    N364     N        0.21197    0.29832    0.03982    1.000
    Si365    Si       0.18152    0.30255    0.00503    1.000
    Si366    Si       0.04954    0.26579    0.21433    1.000
    N367     N        0.05126    0.26968    0.17051    1.000
    Si368    Si       0.02238    0.28199    0.13871    1.000
    N369     N        0.10445    0.25500    0.13933    1.000
    Si370    Si       0.08944    0.29863    0.14469    1.000
    N371     N        0.05594    0.30416    0.23452    1.000
    N372     N        0.12130    0.27742    0.22626    1.000
    N373     N        0.18604    0.28838    0.19437    1.000
    Si374    Si       0.16342    0.28480    0.23395    1.000
    Si375    Si       0.18571    0.24637    0.18043    1.000
    N376     N        0.06387    0.28010    0.35603    1.000
    Si377    Si       0.07275    0.29083    0.31359    1.000
    N378     N        0.05292    0.25798    0.29511    1.000
    N379     N        0.11617    0.28342    0.31265    1.000
    N380     N        0.17278    0.26412    0.27241    1.000
    Si381    Si       0.20451    0.29686    0.35753    1.000
    Si382    Si       0.14338    0.25177    0.30202    1.000
    N383     N        0.23337    0.26449    0.34733    1.000
    N384     N        0.23511    0.29806    0.28853    1.000
    Si385    Si       0.19302    0.30245    0.28750    1.000
    N386     N        0.09282    0.28016    0.42503    1.000
    Si387    Si       0.08001    0.30232    0.38905    1.000
    Si388    Si       0.23294    0.24856    0.45803    1.000
    N389     N        0.12136    0.27388    0.48745    1.000
    N390     N        0.20002    0.27760    0.46245    1.000
    N391     N        0.17875    0.28440    0.39145    1.000
    Si392    Si       0.05624    0.26225    0.59671    1.000
    Si393    Si       0.02176    0.26088    0.52500    1.000
    N394     N        0.05764    0.27559    0.50394    1.000
    N395     N        0.03094    0.24483    0.56408    1.000
    N396     N        0.09529    0.24475    0.59966    1.000
    Si397    Si       0.08994    0.24648    0.49590    1.000
    N398     N        0.14821    0.26561    0.55354    1.000
    Si399    Si       0.18745    0.27158    0.57091    1.000
    N400     N        0.21003    0.28558    0.53837    1.000
    Si401    Si       0.13771    0.29468    0.52308    1.000
    N402     N        0.18180    0.30014    0.60456    1.000
    Si403    Si       0.20270    0.30232    0.49918    1.000
    N404     N        0.02819    0.24774    0.62564    1.000
    Si405    Si       0.10694    0.25264    0.64144    1.000
    Si406    Si       0.02015    0.25479    0.70748    1.000
    N407     N        0.09114    0.29109    0.65000    1.000
    N408     N        0.04487    0.28974    0.70626    1.000
    Si409    Si       0.07623    0.29530    0.73629    1.000
    Si410    Si       0.99719    0.28072    0.63823    1.000
    N411     N        0.15122    0.24683    0.64249    1.000
    N412     N        0.18071    0.28256    0.72974    1.000
    N413     N        0.20871    0.28068    0.66483    1.000
    Si414    Si       0.17089    0.28594    0.64541    1.000
    Si415    Si       0.21636    0.29265    0.70554    1.000
    N416     N        0.11684    0.30422    0.71846    1.000
    Si417    Si       0.02734    0.26790    0.77769    1.000
    Si418    Si       0.08885    0.28370    0.85839    1.000
    N419     N        0.06745    0.26071    0.76058    1.000
    Si420    Si       0.00075    0.26401    0.84689    1.000
    N421     N        0.00084    0.24952    0.74796    1.000
    N422     N        0.07422    0.30224    0.82274    1.000
    Si423    Si       0.23500    0.29186    0.82882    1.000
    Si424    Si       0.15508    0.28427    0.81956    1.000
    N425     N        0.13064    0.29511    0.85818    1.000
    N426     N        0.13758    0.30166    0.78651    1.000
    N427     N        0.19295    0.30385    0.82804    1.000
    N428     N        0.07065    0.29095    0.89759    1.000
    Si429    Si       0.04637    0.28805    0.96378    1.000
    N430     N        0.05675    0.25043    0.94666    1.000
    Si431    Si       0.05627    0.24544    0.89930    1.000
    N432     N        0.21327    0.26041    0.94578    1.000
    Si433    Si       0.17172    0.25194    0.92501    1.000
    Si434    Si       0.23616    0.25791    0.89733    1.000
    Si435    Si       0.23458    0.29695    0.95278    1.000
    N436     N        0.14378    0.28599    0.92315    1.000
    N437     N        0.19483    0.25168    0.88640    1.000
    Si438    Si       0.03967    0.34582    0.10128    1.000
    N439     N        0.07654    0.32961    0.02833    1.000
    N440     N        0.01430    0.33676    0.06332    1.000
    Si441    Si       0.03970    0.30908    0.03641    1.000
    Si442    Si       0.10264    0.30638    0.00229    1.000
    N443     N        0.05377    0.31057    0.12095    1.000
    N444     N        0.14277    0.31975    0.00809    1.000
    N445     N        0.16118    0.34149    0.07382    1.000
    Si446    Si       0.19659    0.31591    0.07538    1.000
    N447     N        0.23016    0.34256    0.08677    1.000
    Si448    Si       0.14753    0.34716    0.11588    1.000
    Si449    Si       0.14947    0.35476    0.03298    1.000
    N450     N        0.99321    0.30855    0.15491    1.000
    Si451    Si       0.09680    0.31333    0.22212    1.000
    N452     N        0.09456    0.32463    0.18048    1.000
    N453     N        0.00629    0.35887    0.19651    1.000
    Si454    Si       0.99186    0.35146    0.15516    1.000
    N455     N        0.12713    0.30946    0.12427    1.000
    N456     N        0.18470    0.35454    0.13737    1.000
    Si457    Si       0.22537    0.34829    0.13013    1.000
    Si458    Si       0.22232    0.30994    0.18997    1.000
    N459     N        0.21679    0.35236    0.19978    1.000
    Si460    Si       0.15139    0.35874    0.24104    1.000
    N461     N        0.06412    0.32845    0.29715    1.000
    Si462    Si       0.03968    0.33433    0.26150    1.000
    N463     N        0.99740    0.33218    0.26532    1.000
    Si464    Si       0.09790    0.35482    0.28894    1.000
    N465     N        0.11052    0.34502    0.24879    1.000
    N466     N        0.13093    0.35170    0.31807    1.000
    Si467    Si       0.13712    0.31341    0.33651    1.000
    N468     N        0.17404    0.32325    0.25350    1.000
    N469     N        0.22849    0.33057    0.36742    1.000
    N470     N        0.17781    0.30580    0.32632    1.000
    Si471    Si       0.00496    0.32855    0.38023    1.000
    N472     N        0.04804    0.33322    0.39294    1.000
    N473     N        0.08735    0.33158    0.47460    1.000
    Si474    Si       0.11344    0.30162    0.45676    1.000
    N475     N        0.14565    0.32095    0.43791    1.000
    Si476    Si       0.23074    0.35874    0.46521    1.000
    N477     N        0.11573    0.32050    0.37362    1.000
    Si478    Si       0.18624    0.30274    0.42992    1.000
    Si479    Si       0.13223    0.34585    0.40545    1.000
    N480     N        0.21162    0.33856    0.43195    1.000
    Si481    Si       0.21118    0.35997    0.39389    1.000
    N482     N        0.04200    0.34275    0.53603    1.000
    Si483    Si       0.08338    0.33812    0.57087    1.000
    Si484    Si       0.06919    0.31740    0.50993    1.000
    N485     N        0.10229    0.31429    0.53800    1.000
    Si486    Si       0.00179    0.33330    0.54756    1.000
    N487     N        0.10645    0.34309    0.60947    1.000
    N488     N        0.05966    0.30592    0.59116    1.000
    Si489    Si       0.20779    0.33503    0.60315    1.000
    N490     N        0.16573    0.32290    0.50387    1.000
    N491     N        0.21719    0.35709    0.56546    1.000
    N492     N        0.23534    0.32906    0.49763    1.000
    Si493    Si       0.00331    0.34979    0.62613    1.000
    N494     N        0.02295    0.31620    0.64575    1.000
    N495     N        0.07655    0.34816    0.67587    1.000
    Si496    Si       0.03959    0.32638    0.68748    1.000
    N497     N        0.01657    0.34989    0.71632    1.000
    Si498    Si       0.06555    0.32874    0.62818    1.000
    Si499    Si       0.10938    0.31649    0.67725    1.000
    N500     N        0.14794    0.32293    0.65889    1.000
    N501     N        0.22530    0.33552    0.70505    1.000
    Si502    Si       0.14150    0.35798    0.63155    1.000
    Si503    Si       0.15226    0.31086    0.74475    1.000
    Si504    Si       0.10053    0.32417    0.79536    1.000
    Si505    Si       0.03512    0.32270    0.82402    1.000
    N506     N        0.07053    0.33063    0.76352    1.000
    Si507    Si       0.02728    0.34313    0.75897    1.000
    N508     N        0.01137    0.30876    0.85841    1.000
    N509     N        0.01291    0.30855    0.78643    1.000
    Si510    Si       0.20465    0.34228    0.84486    1.000
    N511     N        0.16710    0.35106    0.75029    1.000
    Si512    Si       0.03244    0.31526    0.89770    1.000
    N513     N        0.08463    0.30861    0.96304    1.000
    N514     N        0.05038    0.35696    0.89455    1.000
    Si515    Si       0.10358    0.30452    0.92605    1.000
    N516     N        0.01560    0.30307    0.93574    1.000
    Si517    Si       0.15023    0.31706    0.88912    1.000
    N518     N        0.11787    0.34093    0.90733    1.000
    N519     N        0.21265    0.32101    0.98225    1.000
    N520     N        0.18343    0.34361    0.88417    1.000
    N521     N        0.04278    0.39461    0.03056    1.000
    Si522    Si       0.00946    0.38458    0.05761    1.000
    Si523    Si       0.07793    0.37248    0.04197    1.000
    Si524    Si       0.08976    0.40050    0.11540    1.000
    N525     N        0.07292    0.37192    0.08497    1.000
    Si526    Si       0.01213    0.41410    0.12142    1.000
    N527     N        0.00619    0.42161    0.07939    1.000
    N528     N        0.11895    0.38584    0.03159    1.000
    N529     N        0.23285    0.40911    0.05898    1.000
    N530     N        0.18473    0.37228    0.01611    1.000
    Si531    Si       0.20329    0.40987    0.02815    1.000
    N532     N        0.01373    0.36944    0.12481    1.000
    Si533    Si       0.03763    0.38555    0.20919    1.000
    N534     N        0.07593    0.39189    0.18992    1.000
    Si535    Si       0.10942    0.36566    0.17666    1.000
    N536     N        0.05418    0.42099    0.13468    1.000
    N537     N        0.19737    0.41567    0.17716    1.000
    N538     N        0.11788    0.37691    0.13650    1.000
    N539     N        0.14847    0.36563    0.19700    1.000
    Si540    Si       0.18510    0.37382    0.17611    1.000
    N541     N        0.08500    0.39736    0.29752    1.000
    N542     N        0.01114    0.39653    0.30811    1.000
    Si543    Si       0.04460    0.40502    0.28116    1.000
    Si544    Si       0.02268    0.40012    0.34873    1.000
    N545     N        0.06414    0.39515    0.36362    1.000
    Si546    Si       0.09325    0.41598    0.33783    1.000
    N547     N        0.04409    0.37519    0.24911    1.000
    N548     N        0.99857    0.37216    0.37342    1.000
    N549     N        0.19626    0.38115    0.32558    1.000
    N550     N        0.22716    0.39297    0.26308    1.000
    Si551    Si       0.15990    0.37727    0.34244    1.000
    N552     N        0.13308    0.41178    0.35094    1.000
    Si553    Si       0.23323    0.39030    0.30641    1.000
    N554     N        0.15850    0.39955    0.25587    1.000
    N555     N        0.06254    0.39161    0.48934    1.000
    N556     N        0.03524    0.39450    0.42841    1.000
    Si557    Si       0.09357    0.37199    0.46516    1.000
    Si558    Si       0.06079    0.37377    0.40093    1.000
    Si559    Si       0.03262    0.41216    0.46783    1.000
    N560     N        0.09883    0.37124    0.42067    1.000
    Si561    Si       0.99421    0.39841    0.40942    1.000
    N562     N        0.99390    0.40689    0.48333    1.000
    N563     N        0.20109    0.38652    0.48386    1.000
    N564     N        0.16775    0.36211    0.38552    1.000
    N565     N        0.13010    0.39184    0.48175    1.000
    N566     N        0.09041    0.37992    0.55579    1.000
    Si567    Si       0.05590    0.38424    0.53232    1.000
    Si568    Si       0.04196    0.40883    0.59981    1.000
    N569     N        0.03025    0.40850    0.55719    1.000
    N570     N        0.04221    0.36649    0.61381    1.000
    Si571    Si       0.12521    0.40779    0.55689    1.000
    Si572    Si       0.18699    0.38666    0.57200    1.000
    N573     N        0.16006    0.38618    0.53808    1.000
    N574     N        0.17859    0.36640    0.61093    1.000
    Si575    Si       0.16413    0.36969    0.49835    1.000
    Si576    Si       0.09102    0.38829    0.68568    1.000
    N577     N        0.11363    0.38897    0.72082    1.000
    N578     N        0.12213    0.39250    0.65459    1.000
    N579     N        0.18306    0.39835    0.70271    1.000
    Si580    Si       0.20277    0.36604    0.72649    1.000
    Si581    Si       0.20958    0.41394    0.67174    1.000
    Si582    Si       0.14920    0.41356    0.72651    1.000
    Si583    Si       0.08617    0.38642    0.81952    1.000
    Si584    Si       0.02433    0.40338    0.80773    1.000
    N585     N        0.09794    0.39747    0.85886    1.000
    N586     N        0.01084    0.40880    0.84987    1.000
    N587     N        0.00630    0.37780    0.77761    1.000
    N588     N        0.04825    0.36380    0.82084    1.000
    N589     N        0.06436    0.41957    0.80053    1.000
    N590     N        0.11722    0.36589    0.79997    1.000
    N591     N        0.18639    0.37202    0.81978    1.000
    Si592    Si       0.15764    0.37560    0.78576    1.000
    Si593    Si       0.19142    0.41089    0.83584    1.000
    N594     N        0.22755    0.39043    0.75330    1.000
    N595     N        0.16453    0.41901    0.76893    1.000
    N596     N        0.02272    0.41174    0.91644    1.000
    Si597    Si       0.01680    0.38390    0.88470    1.000
    N598     N        0.09614    0.40443    0.92375    1.000
    Si599    Si       0.09212    0.37333    0.89377    1.000
    N600     N        0.20703    0.40738    0.87515    1.000
    N601     N        0.22272    0.36997    0.93639    1.000
    N602     N        0.17119    0.40968    0.93660    1.000
    Si603    Si       0.19290    0.38300    0.90622    1.000
    Si604    Si       0.20890    0.36729    0.97879    1.000
    N605     N        0.22114    0.41089    0.98676    1.000
    Si606    Si       0.03879    0.43545    0.01519    1.000
    N607     N        0.04857    0.47357    0.04038    1.000
    N608     N        0.10794    0.45536    0.02708    1.000
    N609     N        0.11318    0.42552    0.08901    1.000
    N610     N        0.99531    0.44510    0.01485    1.000
    Si611    Si       0.11555    0.45886    0.11395    1.000
    N612     N        0.17092    0.43192    0.04918    1.000
    Si613    Si       0.17890    0.47218    0.07205    1.000
    Si614    Si       0.12883    0.42429    0.04872    1.000
    N615     N        0.15480    0.47683    0.10987    1.000
    N616     N        0.22189    0.47501    0.08178    1.000
    N617     N        0.02750    0.42859    0.19694    1.000
    Si618    Si       0.03697    0.46225    0.22586    1.000
    N619     N        0.07615    0.46425    0.20571    1.000
    Si620    Si       0.06815    0.43169    0.17471    1.000
    N621     N        0.10730    0.44657    0.15390    1.000
    Si622    Si       0.11544    0.47515    0.18815    1.000
    Si623    Si       0.18113    0.45181    0.20151    1.000
    N624     N        0.20533    0.45373    0.23553    1.000
    N625     N        0.13964    0.45240    0.21605    1.000
    Si626    Si       0.13008    0.43028    0.25084    1.000
    N627     N        0.07451    0.45512    0.33292    1.000
    N628     N        0.04855    0.44736    0.26623    1.000
    Si629    Si       0.07964    0.46893    0.29063    1.000
    N630     N        0.01278    0.44206    0.35630    1.000
    Si631    Si       0.04203    0.47373    0.35686    1.000
    N632     N        0.12015    0.45532    0.28444    1.000
    Si633    Si       0.21389    0.45158    0.33295    1.000
    N634     N        0.18595    0.44836    0.29881    1.000
    Si635    Si       0.19516    0.42199    0.26429    1.000
    Si636    Si       0.15060    0.47658    0.30580    1.000
    N637     N        0.20004    0.43722    0.37170    1.000
    N638     N        0.14703    0.47486    0.35092    1.000
    N639     N        0.04124    0.45678    0.46454    1.000
    Si640    Si       0.02004    0.46703    0.42721    1.000
    N641     N        0.10973    0.46614    0.46660    1.000
    Si642    Si       0.15723    0.43946    0.37451    1.000
    Si643    Si       0.13424    0.47811    0.43396    1.000
    Si644    Si       0.13060    0.43432    0.49038    1.000
    Si645    Si       0.20442    0.42926    0.48082    1.000
    N646     N        0.17028    0.45294    0.48936    1.000
    Si647    Si       0.22976    0.43102    0.40211    1.000
    N648     N        0.14938    0.44314    0.41491    1.000
    N649     N        0.22670    0.44290    0.44430    1.000
    Si650    Si       0.99669    0.43417    0.56286    1.000
    N651     N        0.07606    0.43067    0.61118    1.000
    Si652    Si       0.07611    0.47442    0.61533    1.000
    N653     N        0.00279    0.42815    0.60932    1.000
    N654     N        0.99703    0.47455    0.54721    1.000
    N655     N        0.11694    0.44235    0.53252    1.000
    Si656    Si       0.17606    0.44116    0.60169    1.000
    N657     N        0.20321    0.42762    0.57138    1.000
    N658     N        0.23724    0.47477    0.61970    1.000
    Si659    Si       0.23564    0.44751    0.55091    1.000
    N660     N        0.14154    0.41617    0.59402    1.000
    Si661    Si       0.05158    0.46003    0.69074    1.000
    N662     N        0.00970    0.46857    0.69724    1.000
    N663     N        0.06017    0.41754    0.68440    1.000
    Si664    Si       0.15548    0.46001    0.66980    1.000
    Si665    Si       0.11580    0.42396    0.62651    1.000
    N666     N        0.12549    0.46678    0.63864    1.000
    N667     N        0.22922    0.44992    0.68606    1.000
    N668     N        0.13810    0.45053    0.70865    1.000
    N669     N        0.18471    0.43579    0.64460    1.000
    Si670    Si       0.07642    0.46067    0.80268    1.000
    N671     N        0.08919    0.46162    0.84506    1.000
    Si672    Si       0.00362    0.47760    0.79179    1.000
    N673     N        0.99361    0.43618    0.79305    1.000
    N674     N        0.11381    0.46348    0.77469    1.000
    N675     N        0.99876    0.48122    0.83469    1.000
    Si676    Si       0.12085    0.43458    0.85655    1.000
    N677     N        0.22088    0.42950    0.80960    1.000
    Si678    Si       0.15305    0.45560    0.79329    1.000
    N679     N        0.15274    0.43228    0.83035    1.000
    Si680    Si       0.20921    0.42595    0.76894    1.000
    N681     N        0.22000    0.46358    0.75146    1.000
    N682     N        0.00110    0.46680    0.94998    1.000
    N683     N        0.06126    0.46558    0.91393    1.000
    N684     N        0.06065    0.43631    0.97573    1.000
    Si685    Si       0.09446    0.46265    0.98681    1.000
    Si686    Si       0.05861    0.42706    0.93281    1.000
    N687     N        0.20872    0.46137    0.91610    1.000
    N688     N        0.12899    0.45641    0.96308    1.000
    N689     N        0.13673    0.45122    0.89411    1.000
    N690     N        0.19905    0.47353    0.97770    1.000
    Si691    Si       0.20136    0.43491    0.95546    1.000
    Si692    Si       0.13100    0.42805    0.93073    1.000
    Si693    Si       0.01621    0.49965    0.04060    1.000
    N694     N        0.09888    0.52263    0.04520    1.000
    N695     N        0.08308    0.48523    0.09989    1.000
    Si696    Si       0.08737    0.48162    0.05510    1.000
    N697     N        0.99775    0.51253    0.00180    1.000
    Si698    Si       0.13926    0.53074    0.02930    1.000
    N699     N        0.16640    0.50303    0.04732    1.000
    Si700    Si       0.23656    0.49250    0.11992    1.000
    Si701    Si       0.23750    0.49358    0.99651    1.000
    Si702    Si       0.07936    0.51665    0.12951    1.000
    N703     N        0.05770    0.53070    0.16419    1.000
    N704     N        0.02900    0.50528    0.22608    1.000
    Si705    Si       0.05515    0.52948    0.25076    1.000
    N706     N        0.20905    0.52300    0.13645    1.000
    N707     N        0.11761    0.51070    0.15712    1.000
    Si708    Si       0.21417    0.51543    0.18247    1.000
    N709     N        0.17630    0.48851    0.17818    1.000
    Si710    Si       0.15962    0.51060    0.13715    1.000
    Si711    Si       0.23842    0.48082    0.24381    1.000
    N712     N        0.03181    0.51057    0.33619    1.000
    N713     N        0.07680    0.51138    0.28568    1.000
    Si714    Si       0.98897    0.51385    0.32545    1.000
    N715     N        0.11924    0.53674    0.33997    1.000
    N716     N        0.23207    0.49306    0.33570    1.000
    N717     N        0.22685    0.51838    0.26566    1.000
    N718     N        0.16745    0.51462    0.29878    1.000
    Si719    Si       0.21056    0.51885    0.30570    1.000
    Si720    Si       0.13952    0.51175    0.37027    1.000
    N721     N        0.06196    0.51835    0.45010    1.000
    Si722    Si       0.01847    0.52813    0.45722    1.000
    N723     N        0.99598    0.50381    0.43235    1.000
    Si724    Si       0.07404    0.51751    0.40854    1.000
    N725     N        0.05004    0.48086    0.39712    1.000
    Si726    Si       0.07231    0.48645    0.47639    1.000
    N727     N        0.00873    0.52129    0.49837    1.000
    Si728    Si       0.16904    0.49678    0.49356    1.000
    N729     N        0.11428    0.50095    0.40302    1.000
    N730     N        0.16164    0.50826    0.44960    1.000
    N731     N        0.07217    0.50077    0.51718    1.000
    Si732    Si       0.00502    0.50480    0.57986    1.000
    N733     N        0.03638    0.49304    0.60436    1.000
    N734     N        0.10050    0.49037    0.58177    1.000
    Si735    Si       0.10635    0.48584    0.53916    1.000
    Si736    Si       0.04361    0.53245    0.52119    1.000
    Si737    Si       0.23228    0.52063    0.52173    1.000
    Si738    Si       0.21359    0.49864    0.59158    1.000
    N739     N        0.13910    0.50878    0.52343    1.000
    Si740    Si       0.13539    0.49831    0.60785    1.000
    N741     N        0.19314    0.53064    0.50898    1.000
    N742     N        0.22998    0.49027    0.55297    1.000
    N743     N        0.17249    0.48528    0.59290    1.000
    Si744    Si       0.11539    0.47906    0.73358    1.000
    N745     N        0.06279    0.48693    0.65860    1.000
    Si746    Si       0.04096    0.52055    0.63956    1.000
    N747     N        0.00336    0.52800    0.65945    1.000
    Si748    Si       0.99429    0.50882    0.69612    1.000
    N749     N        0.01821    0.53052    0.72821    1.000
    N750     N        0.07309    0.47727    0.72305    1.000
    N751     N        0.12731    0.51691    0.71226    1.000
    N752     N        0.13072    0.53887    0.62255    1.000
    N753     N        0.18965    0.53110    0.73917    1.000
    Si754    Si       0.21929    0.48375    0.65951    1.000
    Si755    Si       0.16796    0.52932    0.70212    1.000
    N756     N        0.17970    0.49849    0.67141    1.000
    Si757    Si       0.01670    0.51956    0.84306    1.000
    N758     N        0.05794    0.52006    0.85679    1.000
    N759     N        0.04579    0.48393    0.78193    1.000
    Si760    Si       0.05186    0.50879    0.74672    1.000
    Si761    Si       0.16651    0.52495    0.82323    1.000
    Si762    Si       0.20887    0.50171    0.76635    1.000
    N763     N        0.17441    0.51409    0.86550    1.000
    N764     N        0.17650    0.49120    0.79689    1.000
    N765     N        0.12220    0.53294    0.82043    1.000
    N766     N        0.99300    0.52516    0.87834    1.000
    Si767    Si       0.08001    0.48409    0.87998    1.000
    N768     N        0.07208    0.49952    0.97678    1.000
    N769     N        0.03769    0.52951    0.93456    1.000
    Si770    Si       0.03958    0.48703    0.94692    1.000
    N771     N        0.11230    0.51134    0.89012    1.000
    N772     N        0.22830    0.53218    0.90943    1.000
    Si773    Si       0.21424    0.50028    0.93603    1.000
    N774     N        0.16786    0.50978    0.93288    1.000
    Si775    Si       0.15883    0.48737    0.97085    1.000
    Si776    Si       0.15125    0.49281    0.89742    1.000
    N777     N        0.13601    0.51993    0.98830    1.000
    N778     N        0.07332    0.55167    0.10347    1.000
    Si779    Si       0.07027    0.55049    0.06029    1.000
    Si780    Si       0.01251    0.55482    0.00943    1.000
    N781     N        0.08086    0.59349    0.04971    1.000
    N782     N        0.03042    0.54019    0.04777    1.000
    N783     N        0.14664    0.57262    0.03773    1.000
    Si784    Si       0.15618    0.57753    0.07844    1.000
    N785     N        0.19940    0.58330    0.08322    1.000
    N786     N        0.15439    0.54519    0.10885    1.000
    Si787    Si       0.14598    0.59817    0.00135    1.000
    Si788    Si       0.06489    0.58655    0.12765    1.000
    N789     N        0.09233    0.58430    0.16227    1.000
    N790     N        0.02361    0.58516    0.14164    1.000
    Si791    Si       0.02670    0.55647    0.17583    1.000
    Si792    Si       0.09904    0.54539    0.18300    1.000
    N793     N        0.03292    0.59075    0.20275    1.000
    N794     N        0.08683    0.54364    0.22672    1.000
    N795     N        0.13808    0.55913    0.19885    1.000
    Si796    Si       0.20001    0.56493    0.12375    1.000
    Si797    Si       0.22790    0.55401    0.23988    1.000
    Si798    Si       0.17397    0.58014    0.18979    1.000
    Si799    Si       0.11721    0.57204    0.23558    1.000
    N800     N        0.20393    0.55187    0.20347    1.000
    N801     N        0.07015    0.57885    0.32396    1.000
    Si802    Si       0.10108    0.57329    0.35587    1.000
    N803     N        0.02939    0.54750    0.27982    1.000
    Si804    Si       0.99527    0.57198    0.28620    1.000
    Si805    Si       0.05632    0.53804    0.31283    1.000
    N806     N        0.20326    0.56003    0.32679    1.000
    N807     N        0.14386    0.57416    0.27031    1.000
    Si808    Si       0.15288    0.55570    0.31238    1.000
    N809     N        0.21767    0.58682    0.26777    1.000
    Si810    Si       0.23121    0.59246    0.30751    1.000
    N811     N        0.14072    0.59131    0.33577    1.000
    N812     N        0.01824    0.56984    0.44384    1.000
    N813     N        0.07572    0.55614    0.39103    1.000
    Si814    Si       0.07298    0.59414    0.40989    1.000
    Si815    Si       0.04217    0.59589    0.47126    1.000
    Si816    Si       0.20304    0.56665    0.37104    1.000
    N817     N        0.15507    0.58191    0.44735    1.000
    N818     N        0.21219    0.56279    0.43446    1.000
    Si819    Si       0.17353    0.54526    0.43058    1.000
    N820     N        0.17493    0.53542    0.38510    1.000
    Si821    Si       0.03878    0.57462    0.58550    1.000
    N822     N        0.08557    0.57953    0.56988    1.000
    N823     N        0.05589    0.57103    0.50789    1.000
    Si824    Si       0.09800    0.56826    0.61002    1.000
    Si825    Si       0.08837    0.59163    0.52855    1.000
    N826     N        0.99069    0.57760    0.60779    1.000
    N827     N        0.05745    0.55743    0.62251    1.000
    N828     N        0.02587    0.53874    0.56117    1.000
    Si829    Si       0.19753    0.57781    0.58809    1.000
    N830     N        0.16896    0.57481    0.55654    1.000
    Si831    Si       0.15641    0.54971    0.52394    1.000
    N832     N        0.12856    0.58760    0.51313    1.000
    N833     N        0.21718    0.54122    0.60005    1.000
    N834     N        0.11704    0.59794    0.63704    1.000
    Si835    Si       0.10840    0.55425    0.72492    1.000
    Si836    Si       0.00435    0.57116    0.73007    1.000
    N837     N        0.08167    0.57719    0.69822    1.000
    N838     N        0.17861    0.59256    0.62441    1.000
    Si839    Si       0.15134    0.56853    0.64563    1.000
    N840     N        0.15518    0.57154    0.68869    1.000
    Si841    Si       0.03654    0.57924    0.79970    1.000
    N842     N        0.07894    0.58089    0.80546    1.000
    Si843    Si       0.10737    0.55439    0.78795    1.000
    N844     N        0.00993    0.54630    0.80933    1.000
    N845     N        0.02454    0.59399    0.76120    1.000
    N846     N        0.09920    0.57969    0.86904    1.000
    Si847    Si       0.09785    0.53842    0.85766    1.000
    N848     N        0.08222    0.53800    0.75578    1.000
    N849     N        0.13529    0.57079    0.75820    1.000
    N850     N        0.18085    0.56429    0.81073    1.000
    Si851    Si       0.17856    0.56647    0.76516    1.000
    N852     N        0.21293    0.58860    0.75603    1.000
    N853     N        0.21624    0.57646    0.86827    1.000
    Si854    Si       0.19350    0.59636    0.83636    1.000
    N855     N        0.01389    0.58592    0.90278    1.000
    N856     N        0.10271    0.55940    0.94367    1.000
    Si857    Si       0.00469    0.54623    0.91469    1.000
    N858     N        0.04866    0.56917    0.99012    1.000
    Si859    Si       0.06944    0.54019    0.96359    1.000
    N860     N        0.17085    0.57328    0.97413    1.000
    N861     N        0.16054    0.56814    0.90652    1.000
    Si862    Si       0.14742    0.54879    0.94758    1.000
    Si863    Si       0.19292    0.54656    0.89002    1.000
    N864     N        0.06684    0.62411    0.10663    1.000
    Si865    Si       0.09618    0.62502    0.07669    1.000
    N866     N        0.04105    0.63521    0.01470    1.000
    Si867    Si       0.06885    0.60184    0.00946    1.000
    Si868    Si       0.99843    0.62980    0.00260    1.000
    N869     N        0.13548    0.61346    0.09451    1.000
    N870     N        0.23478    0.60674    0.00578    1.000
    Si871    Si       0.23963    0.64263    0.03421    1.000
    N872     N        0.99673    0.64376    0.20795    1.000
    N873     N        0.10456    0.61317    0.22560    1.000
    N874     N        0.06553    0.64545    0.17613    1.000
    Si875    Si       0.02543    0.62549    0.17312    1.000
    Si876    Si       0.01641    0.61301    0.23538    1.000
    Si877    Si       0.09940    0.62135    0.18465    1.000
    N878     N        0.00610    0.64703    0.14043    1.000
    N879     N        0.13454    0.63709    0.16645    1.000
    N880     N        0.17569    0.61376    0.21796    1.000
    Si881    Si       0.15777    0.62573    0.13086    1.000
    Si882    Si       0.16109    0.65052    0.19859    1.000
    N883     N        0.18091    0.59322    0.15070    1.000
    N884     N        0.04571    0.61944    0.26525    1.000
    Si885    Si       0.00122    0.64238    0.33565    1.000
    N886     N        0.09925    0.63539    0.29587    1.000
    Si887    Si       0.05943    0.61757    0.30822    1.000
    Si888    Si       0.08404    0.63887    0.25493    1.000
    N889     N        0.00330    0.60118    0.31795    1.000
    N890     N        0.04245    0.65259    0.32985    1.000
    N891     N        0.16803    0.63701    0.28036    1.000
    Si892    Si       0.13917    0.62660    0.31097    1.000
    N893     N        0.16282    0.65031    0.34196    1.000
    N894     N        0.23786    0.63503    0.31933    1.000
    Si895    Si       0.17733    0.60128    0.25949    1.000
    Si896    Si       0.20578    0.65807    0.33867    1.000
    N897     N        0.10109    0.61277    0.38046    1.000
    N898     N        0.03640    0.61836    0.40967    1.000
    N899     N        0.00852    0.61917    0.48693    1.000
    Si900    Si       0.99863    0.59269    0.40917    1.000
    N901     N        0.08229    0.59689    0.45280    1.000
    Si902    Si       0.12362    0.60393    0.46965    1.000
    N903     N        0.21096    0.63271    0.45386    1.000
    N904     N        0.18317    0.59904    0.38995    1.000
    N905     N        0.14266    0.65275    0.40591    1.000
    Si906    Si       0.14936    0.62046    0.37410    1.000
    Si907    Si       0.19076    0.60193    0.43319    1.000
    N908     N        0.12665    0.64806    0.47082    1.000
    N909     N        0.08424    0.63463    0.52453    1.000
    N910     N        0.02813    0.61280    0.56959    1.000
    Si911    Si       0.05338    0.64506    0.55165    1.000
    N912     N        0.14291    0.63262    0.58112    1.000
    Si913    Si       0.15314    0.61333    0.54307    1.000
    N914     N        0.18007    0.63654    0.52047    1.000
    N915     N        0.22869    0.60626    0.58008    1.000
    Si916    Si       0.21463    0.64516    0.49554    1.000
    N917     N        0.99861    0.60130    0.70041    1.000
    N918     N        0.05526    0.63019    0.65491    1.000
    Si919    Si       0.02756    0.63049    0.68637    1.000
    N920     N        0.05267    0.64171    0.71994    1.000
    Si921    Si       0.09073    0.60835    0.67025    1.000
    N922     N        0.11480    0.63539    0.69582    1.000
    Si923    Si       0.15238    0.62691    0.62580    1.000
    N924     N        0.16808    0.64182    0.66473    1.000
    Si925    Si       0.15475    0.61618    0.70060    1.000
    Si926    Si       0.21149    0.62660    0.73689    1.000
    N927     N        0.23547    0.64946    0.63327    1.000
    Si928    Si       0.21063    0.65193    0.67069    1.000
    N929     N        0.17062    0.63618    0.73548    1.000
    N930     N        0.22985    0.62486    0.69783    1.000
    N931     N        0.09856    0.64164    0.82982    1.000
    Si932    Si       0.02801    0.63585    0.75410    1.000
    Si933    Si       0.07799    0.60626    0.83967    1.000
    N934     N        0.03453    0.60355    0.83755    1.000
    Si935    Si       0.00270    0.60590    0.86684    1.000
    N936     N        0.21662    0.62834    0.81760    1.000
    N937     N        0.15819    0.61454    0.85435    1.000
    Si938    Si       0.14125    0.65331    0.84259    1.000
    N939     N        0.99181    0.62190    0.96023    1.000
    N940     N        0.05972    0.62276    0.93729    1.000
    Si941    Si       0.09596    0.60363    0.94537    1.000
    N942     N        0.00956    0.64464    0.88841    1.000
    Si943    Si       0.01994    0.62141    0.92660    1.000
    N944     N        0.10572    0.60959    0.98788    1.000
    Si945    Si       0.20263    0.60369    0.97527    1.000
    N946     N        0.21908    0.61736    0.93837    1.000
    N947     N        0.12352    0.62386    0.91716    1.000
    N948     N        0.17176    0.63217    0.98973    1.000
    Si949    Si       0.13538    0.59521    0.88645    1.000
    Si950    Si       0.04844    0.67046    0.04117    1.000
    N951     N        0.03203    0.70361    0.01871    1.000
    N952     N        0.09055    0.66422    0.05913    1.000
    N953     N        0.02305    0.66340    0.07595    1.000
    Si954    Si       0.11060    0.70228    0.05204    1.000
    Si955    Si       0.04079    0.65868    0.11377    1.000
    N956     N        0.09751    0.71137    0.01198    1.000
    N957     N        0.15141    0.70560    0.06796    1.000
    Si958    Si       0.18863    0.68172    0.07691    1.000
    N959     N        0.22934    0.69823    0.08223    1.000
    N960     N        0.19894    0.66130    0.03945    1.000
    N961     N        0.18059    0.65992    0.11607    1.000
    Si962    Si       0.18536    0.67130    0.00018    1.000
    N963     N        0.16008    0.70468    0.99573    1.000
    N964     N        0.05988    0.69389    0.12778    1.000
    Si965    Si       0.06247    0.68734    0.17138    1.000
    Si966    Si       0.99818    0.68746    0.21544    1.000
    N967     N        0.02433    0.70336    0.18563    1.000
    Si968    Si       0.10919    0.70128    0.22464    1.000
    N969     N        0.09675    0.70971    0.18348    1.000
    N970     N        0.07565    0.68010    0.24296    1.000
    N971     N        0.19530    0.67224    0.18521    1.000
    Si972    Si       0.20673    0.68116    0.14313    1.000
    N973     N        0.14102    0.67337    0.22945    1.000
    Si974    Si       0.21762    0.69074    0.21786    1.000
    N975     N        0.10282    0.68208    0.34981    1.000
    N976     N        0.00726    0.69141    0.25784    1.000
    Si977    Si       0.06364    0.68995    0.33244    1.000
    Si978    Si       0.04740    0.70904    0.26223    1.000
    N979     N        0.06946    0.71502    0.29814    1.000
    Si980    Si       0.16113    0.67822    0.26724    1.000
    Si981    Si       0.14225    0.68959    0.33821    1.000
    N982     N        0.21263    0.69996    0.32430    1.000
    N983     N        0.14065    0.70122    0.29856    1.000
    N984     N        0.20240    0.68912    0.25749    1.000
    Si985    Si       0.22747    0.70952    0.28630    1.000
    N986     N        0.99936    0.67946    0.41692    1.000
    N987     N        0.07176    0.67733    0.40705    1.000
    Si988    Si       0.09130    0.66604    0.49019    1.000
    Si989    Si       0.01736    0.66326    0.49191    1.000
    N990     N        0.05204    0.66117    0.46723    1.000
    Si991    Si       0.03874    0.65796    0.42572    1.000
    Si992    Si       0.10359    0.65714    0.38735    1.000
    Si993    Si       0.14739    0.67767    0.44227    1.000
    N994     N        0.12939    0.71615    0.43284    1.000
    Si995    Si       0.21780    0.66520    0.42624    1.000
    N996     N        0.18810    0.69259    0.44198    1.000
    N997     N        0.21818    0.66530    0.38168    1.000
    N998     N        0.03110    0.67521    0.53093    1.000
    N999     N        0.00733    0.70810    0.58340    1.000
    Si1000   Si       0.11519    0.66655    0.58864    1.000
    N1001    N        0.07114    0.66118    0.58751    1.000
    Si1002   Si       0.02746    0.71515    0.54674    1.000
    N1003    N        0.09895    0.70896    0.49459    1.000
    N1004    N        0.12222    0.69745    0.56070    1.000
    Si1005   Si       0.23169    0.70597    0.53700    1.000
    Si1006   Si       0.24112    0.68684    0.61270    1.000
    N1007    N        0.21921    0.68868    0.49867    1.000
    N1008    N        0.20224    0.70947    0.61918    1.000
    N1009    N        0.99297    0.65856    0.67876    1.000
    Si1010   Si       0.09059    0.65962    0.72374    1.000
    N1011    N        0.09633    0.69778    0.70014    1.000
    N1012    N        0.04605    0.69893    0.65032    1.000
    Si1013   Si       0.06842    0.66365    0.63096    1.000
    Si1014   Si       0.00501    0.69932    0.67759    1.000
    N1015    N        0.11240    0.66528    0.63283    1.000
    Si1016   Si       0.13137    0.66939    0.67128    1.000
    N1017    N        0.15672    0.70395    0.74484    1.000
    N1018    N        0.15236    0.70728    0.67552    1.000
    N1019    N        0.21865    0.69222    0.68296    1.000
    N1020    N        0.01368    0.69575    0.83425    1.000
    Si1021   Si       0.00542    0.68547    0.78825    1.000
    Si1022   Si       0.08173    0.66968    0.79984    1.000
    N1023    N        0.07784    0.70713    0.82197    1.000
    N1024    N        0.04347    0.65825    0.78837    1.000
    N1025    N        0.10678    0.66180    0.76314    1.000
    N1026    N        0.99095    0.65954    0.75606    1.000
    Si1027   Si       0.09800    0.71094    0.86190    1.000
    N1028    N        0.18751    0.68128    0.85765    1.000
    Si1029   Si       0.20179    0.67296    0.81764    1.000
    Si1030   Si       0.14986    0.66506    0.76053    1.000
    N1031    N        0.15977    0.66421    0.80241    1.000
    N1032    N        0.20470    0.71260    0.79496    1.000
    Si1033   Si       0.07720    0.70913    0.92354    1.000
    Si1034   Si       0.01931    0.68397    0.87446    1.000
    N1035    N        0.05924    0.69652    0.88490    1.000
    N1036    N        0.10718    0.68805    0.94561    1.000
    N1037    N        0.21708    0.68248    0.97254    1.000
    Si1038   Si       0.12383    0.71538    0.97534    1.000
    N1039    N        0.23613    0.70251    0.90958    1.000
    N1040    N        0.12410    0.67850    0.87713    1.000
    Si1041   Si       0.20382    0.70834    0.94015    1.000
    Si1042   Si       0.13112    0.66546    0.91936    1.000
    N1043    N        0.16881    0.68781    0.92053    1.000
    Si1044   Si       0.22649    0.67712    0.87692    1.000
    Si1045   Si       0.16130    0.70848    0.88092    1.000
    Si1046   Si       0.06561    0.73451    0.11006    1.000
    N1047    N        0.08635    0.73228    0.07111    1.000
    Si1048   Si       0.09184    0.76926    0.04671    1.000
    Si1049   Si       0.06094    0.72882    0.99612    1.000
    N1050    N        0.06408    0.77009    0.01378    1.000
    Si1051   Si       0.16090    0.74921    0.05814    1.000
    N1052    N        0.20370    0.75397    0.04958    1.000
    N1053    N        0.13440    0.76899    0.03049    1.000
    Si1054   Si       0.23955    0.73667    0.06890    1.000
    N1055    N        0.16291    0.76834    0.09808    1.000
    N1056    N        0.24181    0.76138    0.10573    1.000
    Si1057   Si       0.04168    0.77033    0.21230    1.000
    N1058    N        0.03044    0.75406    0.12027    1.000
    N1059    N        0.10034    0.75360    0.13078    1.000
    Si1060   Si       0.00819    0.73428    0.15658    1.000
    Si1061   Si       0.10647    0.75056    0.17486    1.000
    N1062    N        0.00913    0.76737    0.18248    1.000
    N1063    N        0.14601    0.76188    0.19171    1.000
    Si1064   Si       0.13736    0.76951    0.23562    1.000
    N1065    N        0.21037    0.73408    0.21166    1.000
    Si1066   Si       0.18511    0.74590    0.17767    1.000
    Si1067   Si       0.21454    0.76472    0.24253    1.000
    Si1068   Si       0.20080    0.76310    0.12072    1.000
    N1069    N        0.19521    0.72470    0.14150    1.000
    Si1070   Si       0.02127    0.75095    0.34198    1.000
    N1071    N        0.99909    0.73927    0.30535    1.000
    Si1072   Si       0.01016    0.76701    0.27524    1.000
    N1073    N        0.04241    0.71688    0.36052    1.000
    Si1074   Si       0.11042    0.73223    0.29297    1.000
    N1075    N        0.03898    0.74733    0.24770    1.000
    N1076    N        0.11521    0.77145    0.31341    1.000
    N1077    N        0.11530    0.73590    0.24933    1.000
    N1078    N        0.16144    0.71655    0.36540    1.000
    Si1079   Si       0.20038    0.72971    0.35271    1.000
    N1080    N        0.22605    0.75214    0.28320    1.000
    N1081    N        0.19932    0.77162    0.34811    1.000
    N1082    N        0.10093    0.74415    0.37800    1.000
    N1083    N        0.99689    0.74864    0.43521    1.000
    N1084    N        0.06327    0.73814    0.43389    1.000
    Si1085   Si       0.09732    0.73324    0.45868    1.000
    Si1086   Si       0.06788    0.71957    0.39462    1.000
    Si1087   Si       0.03391    0.77015    0.44131    1.000
    N1088    N        0.11623    0.77181    0.46714    1.000
    Si1089   Si       0.20423    0.71908    0.47014    1.000
    N1090    N        0.23442    0.72903    0.37914    1.000
    Si1091   Si       0.13867    0.73761    0.39677    1.000
    N1092    N        0.16442    0.77038    0.41090    1.000
    N1093    N        0.17294    0.74518    0.48417    1.000
    N1094    N        0.23438    0.74397    0.45161    1.000
    N1095    N        0.06358    0.73822    0.55098    1.000
    Si1096   Si       0.10348    0.72547    0.53476    1.000
    N1097    N        0.00205    0.73943    0.52474    1.000
    N1098    N        0.03659    0.76114    0.61179    1.000
    N1099    N        0.13239    0.75781    0.53925    1.000
    Si1100   Si       0.17298    0.75712    0.52582    1.000
    Si1101   Si       0.20492    0.74367    0.59115    1.000
    N1102    N        0.19667    0.72955    0.55069    1.000
    Si1103   Si       0.02041    0.72162    0.62043    1.000
    N1104    N        0.07840    0.75962    0.66663    1.000
    Si1105   Si       0.06434    0.72225    0.68177    1.000
    N1106    N        0.02755    0.72016    0.70801    1.000
    Si1107   Si       0.00860    0.74420    0.73666    1.000
    Si1108   Si       0.19237    0.71796    0.65938    1.000
    N1109    N        0.19510    0.75875    0.66794    1.000
    Si1110   Si       0.21512    0.77304    0.70375    1.000
    N1111    N        0.19651    0.76369    0.74134    1.000
    N1112    N        0.11878    0.75841    0.72093    1.000
    Si1113   Si       0.13165    0.71850    0.71245    1.000
    Si1114   Si       0.04006    0.72681    0.81586    1.000
    N1115    N        0.01948    0.72638    0.77642    1.000
    N1116    N        0.04342    0.76576    0.83485    1.000
    Si1117   Si       0.17809    0.73340    0.76846    1.000
    N1118    N        0.14191    0.72985    0.84621    1.000
    N1119    N        0.15154    0.76282    0.78735    1.000
    Si1120   Si       0.14743    0.76958    0.83102    1.000
    N1121    N        0.05611    0.73033    0.95293    1.000
    N1122    N        0.01235    0.76183    0.89834    1.000
    Si1123   Si       0.03162    0.76542    0.93908    1.000
    N1124    N        0.10389    0.73750    0.89877    1.000
    N1125    N        0.00545    0.77379    0.97369    1.000
    N1126    N        0.13416    0.75528    0.96026    1.000
    Si1127   Si       0.13518    0.76054    0.91762    1.000
    N1128    N        0.22286    0.75136    0.94646    1.000
    N1129    N        0.17251    0.74700    0.90113    1.000
    N1130    N        0.00960    0.79872    0.06389    1.000
    N1131    N        0.09946    0.79940    0.07798    1.000
    Si1132   Si       0.00840    0.79079    0.10839    1.000
    N1133    N        0.02051    0.83283    0.00265    1.000
    Si1134   Si       0.20752    0.79312    0.03339    1.000
    Si1135   Si       0.12297    0.78416    0.11214    1.000
    N1136    N        0.19659    0.82729    0.05923    1.000
    N1137    N        0.00912    0.82050    0.14126    1.000
    Si1138   Si       0.08612    0.81539    0.21915    1.000
    N1139    N        0.04326    0.81173    0.23061    1.000
    N1140    N        0.08193    0.77942    0.19532    1.000
    Si1141   Si       0.23152    0.80479    0.18303    1.000
    N1142    N        0.19603    0.78621    0.16203    1.000
    N1143    N        0.15871    0.83154    0.20884    1.000
    Si1144   Si       0.15763    0.80159    0.17510    1.000
    N1145    N        0.13180    0.81249    0.14291    1.000
    N1146    N        0.01679    0.80679    0.29049    1.000
    Si1147   Si       0.04392    0.81901    0.32117    1.000
    N1148    N        0.05237    0.78083    0.33996    1.000
    Si1149   Si       0.09378    0.77974    0.35430    1.000
    Si1150   Si       0.00380    0.82375    0.24793    1.000
    Si1151   Si       0.11578    0.81030    0.29274    1.000
    N1152    N        0.11644    0.80607    0.24819    1.000
    N1153    N        0.21818    0.82125    0.30481    1.000
    Si1154   Si       0.16477    0.82396    0.25253    1.000
    N1155    N        0.17223    0.82878    0.36658    1.000
    Si1156   Si       0.22819    0.78092    0.31622    1.000
    N1157    N        0.15396    0.83014    0.29635    1.000
    N1158    N        0.17637    0.78300    0.24929    1.000
    Si1159   Si       0.08438    0.80358    0.47798    1.000
    Si1160   Si       0.00475    0.80849    0.38208    1.000
    N1161    N        0.10172    0.81498    0.37763    1.000
    N1162    N        0.03764    0.80300    0.41206    1.000
    N1163    N        0.04346    0.78894    0.48076    1.000
    Si1164   Si       0.07198    0.83066    0.40880    1.000
    N1165    N        0.09230    0.82933    0.44602    1.000
    N1166    N        0.18984    0.80493    0.46009    1.000
    Si1167   Si       0.15826    0.77468    0.45373    1.000
    Si1168   Si       0.23119    0.78967    0.44795    1.000
    Si1169   Si       0.18907    0.79404    0.38508    1.000
    N1170    N        0.22781    0.79701    0.40196    1.000
    N1171    N        0.03029    0.80453    0.54720    1.000
    N1172    N        0.08866    0.78861    0.58685    1.000
    N1173    N        0.09456    0.82013    0.51941    1.000
    Si1174   Si       0.01413    0.77932    0.51171    1.000
    Si1175   Si       0.05055    0.77380    0.57321    1.000
    Si1176   Si       0.11514    0.79486    0.55172    1.000
    Si1177   Si       0.18388    0.80906    0.57057    1.000
    N1178    N        0.19881    0.79208    0.53392    1.000
    N1179    N        0.14610    0.82268    0.55610    1.000
    N1180    N        0.18365    0.77965    0.60101    1.000
    Si1181   Si       0.23494    0.81270    0.51800    1.000
    N1182    N        0.07166    0.82059    0.64529    1.000
    N1183    N        0.09003    0.81310    0.71429    1.000
    N1184    N        0.02097    0.78628    0.73088    1.000
    Si1185   Si       0.10668    0.78458    0.68883    1.000
    Si1186   Si       0.07291    0.77957    0.62839    1.000
    Si1187   Si       0.99334    0.81320    0.70964    1.000
    Si1188   Si       0.05743    0.80795    0.74405    1.000
    Si1189   Si       0.17603    0.78915    0.64317    1.000
    N1190    N        0.13672    0.79428    0.66015    1.000
    N1191    N        0.20599    0.81582    0.71085    1.000
    Si1192   Si       0.07302    0.79562    0.81729    1.000
    N1193    N        0.08039    0.78685    0.77439    1.000
    Si1194   Si       0.02391    0.78979    0.86646    1.000
    N1195    N        0.11139    0.79292    0.83564    1.000
    Si1196   Si       0.12258    0.78174    0.75835    1.000
    N1197    N        0.18281    0.78947    0.84863    1.000
    Si1198   Si       0.20805    0.82173    0.82942    1.000
    N1199    N        0.20023    0.82566    0.78706    1.000
    Si1200   Si       0.18617    0.80538    0.74940    1.000
    N1201    N        0.14566    0.81673    0.74817    1.000
    N1202    N        0.05711    0.80126    0.94779    1.000
    N1203    N        0.04546    0.82328    0.88603    1.000
    Si1204   Si       0.04097    0.79752    0.98882    1.000
    N1205    N        0.21119    0.81041    0.91628    1.000
    N1206    N        0.18935    0.78901    0.99442    1.000
    N1207    N        0.12995    0.80402    0.91640    1.000
    N1208    N        0.12805    0.82298    0.98181    1.000
    Si1209   Si       0.14635    0.78447    0.99079    1.000
    Si1210   Si       0.21419    0.79166    0.95896    1.000
    Si1211   Si       0.19937    0.77642    0.88584    1.000
    N1212    N        0.05953    0.85194    0.05159    1.000
    N1213    N        0.02011    0.87971    0.10358    1.000
    Si1214   Si       0.08894    0.84274    0.08137    1.000
    N1215    N        0.10754    0.88449    0.01282    1.000
    Si1216   Si       0.01822    0.83692    0.04611    1.000
    Si1217   Si       0.06944    0.89041    0.02862    1.000
    Si1218   Si       0.23881    0.83975    0.06083    1.000
    N1219    N        0.18537    0.87903    0.10180    1.000
    N1220    N        0.12867    0.86067    0.08105    1.000
    Si1221   Si       0.16888    0.86051    0.06431    1.000
    Si1222   Si       0.22688    0.88910    0.10266    1.000
    N1223    N        0.17605    0.89169    0.03592    1.000
    Si1224   Si       0.14422    0.89057    0.11361    1.000
    N1225    N        0.07413    0.84649    0.12333    1.000
    N1226    N        0.08740    0.84966    0.19286    1.000
    Si1227   Si       0.06389    0.88588    0.20133    1.000
    Si1228   Si       0.10610    0.84562    0.15388    1.000
    Si1229   Si       0.03403    0.85671    0.13897    1.000
    N1230    N        0.03726    0.89044    0.16741    1.000
    N1231    N        0.04830    0.89084    0.24211    1.000
    N1232    N        0.21898    0.84609    0.18419    1.000
    N1233    N        0.12863    0.88318    0.15236    1.000
    Si1234   Si       0.18741    0.86363    0.20953    1.000
    Si1235   Si       0.09420    0.87686    0.31889    1.000
    N1236    N        0.02419    0.83896    0.35332    1.000
    Si1237   Si       0.03675    0.87764    0.36534    1.000
    N1238    N        0.08389    0.83521    0.30935    1.000
    N1239    N        0.12411    0.87807    0.35159    1.000
    Si1240   Si       0.22283    0.86228    0.28515    1.000
    N1241    N        0.20287    0.87860    0.32074    1.000
    N1242    N        0.19417    0.85764    0.25237    1.000
    Si1243   Si       0.18316    0.83982    0.32651    1.000
    N1244    N        0.00258    0.87591    0.44186    1.000
    N1245    N        0.06574    0.87142    0.39788    1.000
    Si1246   Si       0.00273    0.87792    0.48514    1.000
    Si1247   Si       0.11905    0.86335    0.45428    1.000
    Si1248   Si       0.13340    0.84431    0.37793    1.000
    Si1249   Si       0.19109    0.84457    0.47376    1.000
    N1250    N        0.14012    0.86449    0.41660    1.000
    N1251    N        0.20625    0.87089    0.44144    1.000
    N1252    N        0.14930    0.85400    0.48539    1.000
    N1253    N        0.06465    0.86692    0.56698    1.000
    N1254    N        0.99869    0.86778    0.55872    1.000
    Si1255   Si       0.05712    0.83918    0.53344    1.000
    Si1256   Si       0.02820    0.88303    0.58720    1.000
    N1257    N        0.04145    0.86578    0.50397    1.000
    Si1258   Si       0.15570    0.87098    0.58547    1.000
    N1259    N        0.19415    0.84699    0.58829    1.000
    Si1260   Si       0.13067    0.84718    0.52465    1.000
    N1261    N        0.21807    0.85277    0.50617    1.000
    N1262    N        0.13047    0.88212    0.54824    1.000
    Si1263   Si       0.23818    0.88466    0.53048    1.000
    N1264    N        0.13356    0.85648    0.61917    1.000
    N1265    N        0.02311    0.87230    0.62900    1.000
    Si1266   Si       0.04946    0.85469    0.65873    1.000
    Si1267   Si       0.05683    0.87845    0.72571    1.000
    N1268    N        0.07341    0.88190    0.68478    1.000
    N1269    N        0.01417    0.83897    0.68264    1.000
    N1270    N        0.10177    0.88296    0.74025    1.000
    Si1271   Si       0.19138    0.85669    0.69433    1.000
    N1272    N        0.20689    0.87938    0.73280    1.000
    Si1273   Si       0.21631    0.85429    0.62861    1.000
    Si1274   Si       0.13932    0.83944    0.65637    1.000
    Si1275   Si       0.12035    0.84502    0.72765    1.000
    N1276    N        0.14123    0.86307    0.69325    1.000
    N1277    N        0.21520    0.88161    0.66810    1.000
    N1278    N        0.18395    0.83151    0.65276    1.000
    Si1279   Si       0.03177    0.85846    0.79391    1.000
    Si1280   Si       0.05113    0.85626    0.85680    1.000
    N1281    N        0.01122    0.87124    0.86462    1.000
    N1282    N        0.04595    0.84839    0.75454    1.000
    N1283    N        0.05089    0.83212    0.82134    1.000
    N1284    N        0.07788    0.88984    0.86809    1.000
    N1285    N        0.19844    0.85817    0.85663    1.000
    Si1286   Si       0.21959    0.86066    0.76936    1.000
    N1287    N        0.22066    0.89134    0.80018    1.000
    N1288    N        0.02726    0.86550    0.93699    1.000
    N1289    N        0.09499    0.86189    0.92933    1.000
    Si1290   Si       0.01952    0.87163    0.97864    1.000
    Si1291   Si       0.05963    0.83830    0.92507    1.000
    Si1292   Si       0.99593    0.86568    0.90742    1.000
    N1293    N        0.16390    0.86155    0.92415    1.000
    N1294    N        0.23692    0.86789    0.91194    1.000
    Si1295   Si       0.19746    0.85024    0.90189    1.000
    Si1296   Si       0.12930    0.83874    0.94086    1.000
    N1297    N        0.07383    0.91651    0.06113    1.000
    Si1298   Si       0.04135    0.91401    0.08706    1.000
    N1299    N        0.00599    0.92656    0.06333    1.000
    Si1300   Si       0.10591    0.94482    0.06944    1.000
    N1301    N        0.04354    0.94327    0.12057    1.000
    Si1302   Si       0.21879    0.90445    0.03065    1.000
    Si1303   Si       0.14273    0.90959    0.01378    1.000
    N1304    N        0.12853    0.92935    0.10373    1.000
    N1305    N        0.23072    0.91708    0.07014    1.000
    N1306    N        0.13213    0.94677    0.03438    1.000
    N1307    N        0.09750    0.91666    0.21401    1.000
    Si1308   Si       0.02216    0.92967    0.15820    1.000
    N1309    N        0.17175    0.90231    0.19922    1.000
    Si1310   Si       0.13228    0.91344    0.18423    1.000
    N1311    N        0.23107    0.90454    0.14360    1.000
    Si1312   Si       0.21776    0.94444    0.15310    1.000
    N1313    N        0.23750    0.90062    0.21601    1.000
    Si1314   Si       0.20353    0.92703    0.21863    1.000
    Si1315   Si       0.05658    0.93856    0.31855    1.000
    Si1316   Si       0.08382    0.91124    0.25581    1.000
    Si1317   Si       0.00688    0.89865    0.25535    1.000
    N1318    N        0.11206    0.90245    0.28857    1.000
    N1319    N        0.98926    0.93226    0.27549    1.000
    Si1320   Si       0.99545    0.94162    0.37172    1.000
    N1321    N        0.01956    0.94966    0.33296    1.000
    N1322    N        0.06868    0.94606    0.27585    1.000
    N1323    N        0.05880    0.89797    0.33071    1.000
    N1324    N        0.22741    0.94077    0.34031    1.000
    Si1325   Si       0.21356    0.90249    0.35566    1.000
    N1326    N        0.15557    0.94015    0.33433    1.000
    Si1327   Si       0.12468    0.94119    0.30480    1.000
    Si1328   Si       0.14089    0.91260    0.36840    1.000
    N1329    N        0.18944    0.94188    0.25614    1.000
    Si1330   Si       0.08232    0.90689    0.41619    1.000
    Si1331   Si       0.01457    0.91896    0.43640    1.000
    N1332    N        0.01995    0.92162    0.48134    1.000
    N1333    N        0.05009    0.93718    0.41930    1.000
    N1334    N        0.00217    0.89969    0.38143    1.000
    Si1335   Si       0.06123    0.90478    0.48993    1.000
    N1336    N        0.08963    0.89725    0.45932    1.000
    N1337    N        0.11336    0.93119    0.39603    1.000
    N1338    N        0.18032    0.90438    0.38392    1.000
    N1339    N        0.15555    0.92552    0.44986    1.000
    Si1340   Si       0.17368    0.89298    0.42557    1.000
    N1341    N        0.21684    0.94029    0.48150    1.000
    N1342    N        0.07735    0.92336    0.52491    1.000
    N1343    N        0.09694    0.92269    0.59554    1.000
    N1344    N        0.02893    0.92681    0.59150    1.000
    Si1345   Si       0.09224    0.90165    0.55910    1.000
    Si1346   Si       0.20883    0.92713    0.59341    1.000
    N1347    N        0.16803    0.91100    0.59809    1.000
    N1348    N        0.21565    0.91533    0.55032    1.000
    Si1349   Si       0.13470    0.93109    0.61533    1.000
    N1350    N        0.23570    0.89422    0.61058    1.000
    N1351    N        0.02036    0.90293    0.72426    1.000
    Si1352   Si       0.01315    0.94232    0.70815    1.000
    Si1353   Si       0.11484    0.89926    0.69210    1.000
    Si1354   Si       0.24250    0.90013    0.72189    1.000
    Si1355   Si       0.24084    0.91381    0.65214    1.000
    N1356    N        0.11630    0.93878    0.71331    1.000
    N1357    N        0.13217    0.92149    0.65763    1.000
    Si1358   Si       0.08172    0.91210    0.83045    1.000
    Si1359   Si       0.01258    0.91198    0.84239    1.000
    N1360    N        0.04338    0.89598    0.81555    1.000
    N1361    N        0.98654    0.93067    0.81371    1.000
    Si1362   Si       0.11685    0.92010    0.76100    1.000
    N1363    N        0.11747    0.91408    0.80756    1.000
    Si1364   Si       0.14997    0.94450    0.80825    1.000
    N1365    N        0.18069    0.93553    0.83664    1.000
    Si1366   Si       0.20421    0.89860    0.84071    1.000
    N1367    N        0.15762    0.94080    0.76624    1.000
    N1368    N        0.23564    0.92050    0.86681    1.000
    Si1369   Si       0.98889    0.93676    0.91070    1.000
    N1370    N        0.01398    0.94051    0.87544    1.000
    Si1371   Si       0.09115    0.90119    0.90880    1.000
    N1372    N        0.07219    0.93154    0.93164    1.000
    Si1373   Si       0.04691    0.93761    0.96721    1.000
    N1374    N        0.00732    0.94027    0.95203    1.000
    N1375    N        0.04355    0.90285    0.99642    1.000
    Si1376   Si       0.15887    0.90396    0.93148    1.000
    Si1377   Si       0.19417    0.93884    0.96619    1.000
    N1378    N        0.15833    0.91634    0.97337    1.000
    N1379    N        0.22536    0.92640    0.99331    1.000
    N1380    N        0.19980    0.91855    0.92639    1.000
    N1381    N        0.12980    0.91854    0.90460    1.000
    Si1382   Si       0.04431    0.98467    0.10604    1.000
    N1383    N        0.08554    0.98070    0.08130    1.000
    N1384    N        0.01579    0.99829    0.07258    1.000
    Si1385   Si       0.99083    0.96513    0.05470    1.000
    N1386    N        0.22037    0.00731    0.01518    1.000
    N1387    N        0.13555    0.00278    0.12338    1.000
    N1388    N        0.08298    0.99426    0.22333    1.000
    Si1389   Si       0.02123    0.98838    0.21356    1.000
    Si1390   Si       0.08525    0.95841    0.19849    1.000
    N1391    N        0.00752    0.99844    0.13478    1.000
    N1392    N        0.04079    0.95656    0.18992    1.000
    N1393    N        0.11711    0.95154    0.16907    1.000
    Si1394   Si       0.20980    0.00535    0.20293    1.000
    Si1395   Si       0.17813    0.00552    0.13543    1.000
    N1396    N        0.21293    0.96139    0.19523    1.000
    Si1397   Si       0.13716    0.95956    0.13296    1.000
    N1398    N        0.18036    0.95952    0.13796    1.000
    Si1399   Si       0.06965    0.98835    0.26332    1.000
    N1400    N        0.02784    0.99550    0.25549    1.000
    Si1401   Si       0.09751    0.96850    0.37623    1.000
    N1402    N        0.09344    0.95545    0.33546    1.000
    N1403    N        0.13469    0.97737    0.28111    1.000
    N1404    N        0.19455    0.99236    0.30412    1.000
    Si1405   Si       0.17588    0.97950    0.26705    1.000
    Si1406   Si       0.19056    0.96634    0.33764    1.000
    N1407    N        0.99582    0.98567    0.38124    1.000
    N1408    N        0.06458    0.99513    0.38700    1.000
    Si1409   Si       0.05868    0.97779    0.42631    1.000
    N1410    N        0.09662    0.97923    0.44657    1.000
    N1411    N        0.02408    0.99360    0.44397    1.000
    Si1412   Si       0.98734    0.98680    0.42391    1.000
    N1413    N        0.16536    0.98713    0.44292    1.000
    Si1414   Si       0.17782    0.95533    0.47271    1.000
    Si1415   Si       0.13103    0.96038    0.42872    1.000
    N1416    N        0.19640    0.98982    0.37615    1.000
    Si1417   Si       0.16677    0.00638    0.40199    1.000
    N1418    N        0.12794    0.99337    0.39100    1.000
    Si1419   Si       0.23616    0.00417    0.37467    1.000
    N1420    N        0.06605    0.98144    0.56915    1.000
    Si1421   Si       0.07383    0.96631    0.52833    1.000
    N1422    N        0.03314    0.98311    0.51510    1.000
    N1423    N        0.00063    0.99157    0.57852    1.000
    N1424    N        0.10675    0.98722    0.51368    1.000
    Si1425   Si       0.00073    0.95180    0.50741    1.000
    Si1426   Si       0.06446    0.95188    0.59955    1.000
    Si1427   Si       0.99350    0.94902    0.58047    1.000
    Si1428   Si       0.16684    0.99386    0.59401    1.000
    N1429    N        0.19738    0.96857    0.57447    1.000
    N1430    N        0.17236    0.97217    0.51305    1.000
    N1431    N        0.13459    0.97704    0.61739    1.000
    Si1432   Si       0.23124    0.99856    0.56769    1.000
    Si1433   Si       0.20820    0.95303    0.52952    1.000
    Si1434   Si       0.14634    0.00403    0.52407    1.000
    N1435    N        0.05103    0.96411    0.70269    1.000
    Si1436   Si       0.08600    0.96806    0.72831    1.000
    Si1437   Si       0.03685    0.98200    0.66418    1.000
    N1438    N        0.06755    0.97467    0.63516    1.000
    Si1439   Si       0.10310    0.99883    0.63853    1.000
    N1440    N        0.00006    0.95787    0.66966    1.000
    N1441    N        0.09793    0.00634    0.73704    1.000
    N1442    N        0.21527    0.94607    0.63424    1.000
    N1443    N        0.23715    0.99905    0.67598    1.000
    N1444    N        0.12378    0.99665    0.67865    1.000
    Si1445   Si       0.22241    0.98798    0.63532    1.000
    Si1446   Si       0.22344    0.96468    0.70166    1.000
    N1447    N        0.18013    0.95792    0.69701    1.000
    Si1448   Si       0.14087    0.95738    0.68030    1.000
    Si1449   Si       0.17555    0.97038    0.73833    1.000
    N1450    N        0.21808    0.96859    0.74392    1.000
    Si1451   Si       0.08496    0.97475    0.80265    1.000
    N1452    N        0.06767    0.95306    0.83773    1.000
    Si1453   Si       0.04282    0.97305    0.86778    1.000
    N1454    N        0.08450    0.94876    0.76618    1.000
    N1455    N        0.23987    0.95685    0.81099    1.000
    Si1456   Si       0.21434    0.96199    0.84734    1.000
    N1457    N        0.12890    0.98315    0.81147    1.000
    N1458    N        0.19003    0.99858    0.83877    1.000
    N1459    N        0.05546    0.99362    0.90404    1.000
    Si1460   Si       0.08444    0.97300    0.93293    1.000
    N1461    N        0.06697    0.97889    0.97331    1.000
    N1462    N        0.12367    0.98799    0.93020    1.000
    Si1463   Si       0.23134    0.97977    0.92696    1.000
    N1464    N        0.19446    0.97923    0.95189    1.000
    Si1465   Si       0.16005    0.00595    0.94355    1.000
    N1466    N        0.23164    0.98690    0.88355    1.000
    N1467    N        0.28082    0.02870    0.01222    1.000
    Si1468   Si       0.31937    0.03266    0.03230    1.000
    Si1469   Si       0.25344    0.01905    0.04478    1.000
    N1470    N        0.34686    0.03889    0.99936    1.000
    N1471    N        0.31021    0.05732    0.06769    1.000
    N1472    N        0.24282    0.05296    0.06857    1.000
    N1473    N        0.43567    0.02995    0.05663    1.000
    Si1474   Si       0.40244    0.03888    0.08323    1.000
    Si1475   Si       0.43369    0.04108    0.01387    1.000
    N1476    N        0.47236    0.04424    0.99699    1.000
    N1477    N        0.34306    0.04808    0.12774    1.000
    Si1478   Si       0.31321    0.02012    0.13914    1.000
    Si1479   Si       0.25809    0.05624    0.16749    1.000
    N1480    N        0.27090    0.03017    0.13478    1.000
    Si1481   Si       0.32219    0.05563    0.19736    1.000
    Si1482   Si       0.27210    0.02659    0.23757    1.000
    N1483    N        0.30734    0.05286    0.23626    1.000
    N1484    N        0.31685    0.01395    0.18175    1.000
    N1485    N        0.24798    0.02699    0.20131    1.000
    N1486    N        0.40495    0.06301    0.12085    1.000
    N1487    N        0.40420    0.01985    0.23302    1.000
    Si1488   Si       0.39213    0.06513    0.22681    1.000
    N1489    N        0.36486    0.06240    0.19077    1.000
    Si1490   Si       0.38034    0.04613    0.15195    1.000
    N1491    N        0.31111    0.05252    0.30216    1.000
    Si1492   Si       0.27741    0.02681    0.30931    1.000
    N1493    N        0.24991    0.03325    0.27410    1.000
    N1494    N        0.30117    0.03957    0.36569    1.000
    N1495    N        0.24429    0.02834    0.33843    1.000
    Si1496   Si       0.33156    0.06042    0.33955    1.000
    Si1497   Si       0.26176    0.06226    0.36405    1.000
    N1498    N        0.37245    0.05024    0.33705    1.000
    N1499    N        0.42527    0.04503    0.29371    1.000
    Si1500   Si       0.46343    0.04871    0.31481    1.000
    N1501    N        0.44441    0.05503    0.35398    1.000
    Si1502   Si       0.40371    0.04070    0.36477    1.000
    N1503    N        0.48910    0.01545    0.31880    1.000
    Si1504   Si       0.42278    0.00668    0.26931    1.000
    Si1505   Si       0.31033    0.05044    0.43796    1.000
    N1506    N        0.33672    0.04678    0.47436    1.000
    N1507    N        0.24098    0.03897    0.39986    1.000
    N1508    N        0.31468    0.00875    0.42297    1.000
    Si1509   Si       0.45887    0.02739    0.48870    1.000
    N1510    N        0.44603    0.00976    0.42117    1.000
    Si1511   Si       0.48422    0.03096    0.42367    1.000
    N1512    N        0.39787    0.05918    0.40349    1.000
    Si1513   Si       0.41796    0.04046    0.43544    1.000
    Si1514   Si       0.36437    0.01562    0.48297    1.000
    N1515    N        0.43101    0.05776    0.47320    1.000
    N1516    N        0.28148    0.03287    0.51332    1.000
    Si1517   Si       0.32122    0.05672    0.57921    1.000
    N1518    N        0.31235    0.01593    0.58394    1.000
    Si1519   Si       0.31272    0.06320    0.50571    1.000
    N1520    N        0.34060    0.06145    0.54143    1.000
    Si1521   Si       0.23909    0.04787    0.51048    1.000
    N1522    N        0.39015    0.01893    0.51801    1.000
    Si1523   Si       0.38331    0.05636    0.53884    1.000
    N1524    N        0.46453    0.03685    0.60172    1.000
    N1525    N        0.39294    0.05114    0.58110    1.000
    N1526    N        0.47134    0.03542    0.52925    1.000
    Si1527   Si       0.42175    0.03219    0.60992    1.000
    Si1528   Si       0.33319    0.05061    0.65779    1.000
    N1529    N        0.29578    0.02887    0.65317    1.000
    Si1530   Si       0.25875    0.03749    0.67428    1.000
    N1531    N        0.26847    0.05303    0.71634    1.000
    Si1532   Si       0.29064    0.02790    0.74197    1.000
    N1533    N        0.41246    0.06749    0.63780    1.000
    N1534    N        0.48277    0.02703    0.72847    1.000
    Si1535   Si       0.39332    0.01410    0.74375    1.000
    N1536    N        0.39293    0.05400    0.72162    1.000
    Si1537   Si       0.40660    0.04887    0.68034    1.000
    N1538    N        0.36683    0.02577    0.66521    1.000
    Si1539   Si       0.48498    0.06323    0.70272    1.000
    Si1540   Si       0.34689    0.03251    0.79599    1.000
    N1541    N        0.26169    0.02178    0.83154    1.000
    N1542    N        0.32911    0.04170    0.75491    1.000
    N1543    N        0.32907    0.06329    0.81969    1.000
    N1544    N        0.39122    0.03004    0.78666    1.000
    N1545    N        0.45991    0.04232    0.79877    1.000
    Si1546   Si       0.41968    0.06151    0.79898    1.000
    Si1547   Si       0.45966    0.01048    0.82817    1.000
    Si1548   Si       0.40687    0.04570    0.86932    1.000
    N1549    N        0.24825    0.01449    0.94768    1.000
    N1550    N        0.29659    0.02457    0.89142    1.000
    Si1551   Si       0.33765    0.02457    0.90824    1.000
    N1552    N        0.31714    0.06285    0.93482    1.000
    Si1553   Si       0.28507    0.06407    0.90623    1.000
    N1554    N        0.43007    0.05850    0.90511    1.000
    N1555    N        0.36912    0.05112    0.89169    1.000
    N1556    N        0.48892    0.02930    0.92899    1.000
    N1557    N        0.33676    0.11156    0.10463    1.000
    N1558    N        0.27383    0.10869    0.04234    1.000
    N1559    N        0.26868    0.10191    0.11322    1.000
    Si1560   Si       0.27550    0.08124    0.07423    1.000
    Si1561   Si       0.34531    0.07172    0.09093    1.000
    N1562    N        0.42059    0.08345    0.01352    1.000
    Si1563   Si       0.40489    0.10025    0.05199    1.000
    N1564    N        0.44114    0.09704    0.07548    1.000
    Si1565   Si       0.47814    0.11372    0.06371    1.000
    N1566    N        0.49185    0.10971    0.02196    1.000
    Si1567   Si       0.43134    0.09672    0.11898    1.000
    N1568    N        0.37683    0.06692    0.06315    1.000
    Si1569   Si       0.30681    0.10728    0.13780    1.000
    N1570    N        0.29641    0.07856    0.17096    1.000
    N1571    N        0.25286    0.12241    0.22257    1.000
    N1572    N        0.46299    0.07682    0.14646    1.000
    Si1573   Si       0.46594    0.08373    0.18784    1.000
    N1574    N        0.43127    0.08408    0.21730    1.000
    N1575    N        0.32053    0.10223    0.34434    1.000
    N1576    N        0.25735    0.09025    0.32526    1.000
    N1577    N        0.29943    0.11307    0.27611    1.000
    Si1578   Si       0.32443    0.07715    0.26923    1.000
    Si1579   Si       0.29048    0.11666    0.31833    1.000
    N1580    N        0.36929    0.07518    0.26441    1.000
    N1581    N        0.40171    0.10835    0.31723    1.000
    Si1582   Si       0.39212    0.06917    0.30127    1.000
    N1583    N        0.48897    0.07417    0.28862    1.000
    N1584    N        0.26778    0.10079    0.38683    1.000
    N1585    N        0.32845    0.08143    0.41469    1.000
    Si1586   Si       0.30974    0.10879    0.38793    1.000
    Si1587   Si       0.27174    0.10574    0.48019    1.000
    N1588    N        0.27445    0.07095    0.45433    1.000
    Si1589   Si       0.37196    0.09146    0.41765    1.000
    Si1590   Si       0.46169    0.08282    0.38145    1.000
    N1591    N        0.38255    0.11077    0.45599    1.000
    N1592    N        0.36808    0.12464    0.38772    1.000
    N1593    N        0.43461    0.11723    0.38616    1.000
    Si1594   Si       0.41363    0.09751    0.48763    1.000
    N1595    N        0.45200    0.12264    0.48497    1.000
    N1596    N        0.47144    0.07229    0.42293    1.000
    Si1597   Si       0.47945    0.10070    0.45728    1.000
    N1598    N        0.29103    0.08862    0.57853    1.000
    Si1599   Si       0.30920    0.10947    0.61174    1.000
    N1600    N        0.33754    0.07621    0.61941    1.000
    N1601    N        0.24331    0.09057    0.50957    1.000
    N1602    N        0.31118    0.10580    0.49880    1.000
    N1603    N        0.39622    0.09633    0.52760    1.000
    Si1604   Si       0.37986    0.08072    0.61089    1.000
    N1605    N        0.38991    0.11922    0.59519    1.000
    Si1606   Si       0.48679    0.07608    0.59852    1.000
    N1607    N        0.28781    0.11042    0.64913    1.000
    Si1608   Si       0.31964    0.11636    0.67754    1.000
    N1609    N        0.33454    0.07808    0.69108    1.000
    Si1610   Si       0.24715    0.08801    0.73413    1.000
    Si1611   Si       0.24579    0.10606    0.65802    1.000
    Si1612   Si       0.35235    0.07009    0.73195    1.000
    N1613    N        0.24000    0.11726    0.69857    1.000
    N1614    N        0.44268    0.07679    0.69013    1.000
    Si1615   Si       0.43897    0.10057    0.65375    1.000
    N1616    N        0.47301    0.10478    0.62693    1.000
    Si1617   Si       0.42765    0.08825    0.73068    1.000
    N1618    N        0.47239    0.09178    0.74148    1.000
    N1619    N        0.40048    0.12237    0.71934    1.000
    Si1620   Si       0.32168    0.10110    0.83695    1.000
    N1621    N        0.27361    0.11221    0.75905    1.000
    N1622    N        0.35925    0.12188    0.83633    1.000
    N1623    N        0.34621    0.10786    0.75519    1.000
    Si1624   Si       0.39791    0.11504    0.85565    1.000
    N1625    N        0.41440    0.09440    0.77327    1.000
    N1626    N        0.40966    0.07619    0.83941    1.000
    Si1627   Si       0.38570    0.12447    0.75882    1.000
    N1628    N        0.29520    0.09475    0.87383    1.000
    N1629    N        0.24467    0.07587    0.92217    1.000
    N1630    N        0.32211    0.10848    0.99103    1.000
    Si1631   Si       0.33819    0.07391    0.97135    1.000
    Si1632   Si       0.40921    0.10645    0.97638    1.000
    Si1633   Si       0.46765    0.06922    0.92300    1.000
    Si1634   Si       0.47219    0.08774    0.98913    1.000
    N1635    N        0.39318    0.11669    0.89946    1.000
    N1636    N        0.44434    0.09062    0.95541    1.000
    N1637    N        0.37757    0.08524    0.95823    1.000
    Si1638   Si       0.39339    0.07886    0.91890    1.000
    N1639    N        0.32667    0.15402    0.04478    1.000
    Si1640   Si       0.34899    0.14747    0.08138    1.000
    N1641    N        0.33913    0.17839    0.11020    1.000
    N1642    N        0.25741    0.15679    0.00781    1.000
    Si1643   Si       0.29898    0.13298    0.01914    1.000
    N1644    N        0.39109    0.13921    0.07210    1.000
    N1645    N        0.46432    0.15737    0.06441    1.000
    Si1646   Si       0.42784    0.15818    0.08954    1.000
    Si1647   Si       0.26321    0.14105    0.18379    1.000
    N1648    N        0.30074    0.14208    0.16094    1.000
    Si1649   Si       0.31343    0.18012    0.14279    1.000
    N1650    N        0.25933    0.18322    0.19217    1.000
    N1651    N        0.31087    0.17225    0.24173    1.000
    Si1652   Si       0.40584    0.17142    0.22261    1.000
    Si1653   Si       0.44382    0.15993    0.16461    1.000
    N1654    N        0.40150    0.16129    0.18223    1.000
    N1655    N        0.46408    0.13031    0.19056    1.000
    N1656    N        0.43442    0.13864    0.12777    1.000
    N1657    N        0.44780    0.18301    0.22859    1.000
    Si1658   Si       0.44793    0.12324    0.23369    1.000
    N1659    N        0.28348    0.16091    0.32647    1.000
    N1660    N        0.24730    0.17205    0.27034    1.000
    Si1661   Si       0.27816    0.14425    0.25380    1.000
    Si1662   Si       0.29890    0.17860    0.36425    1.000
    N1663    N        0.36952    0.16936    0.29408    1.000
    Si1664   Si       0.40454    0.14447    0.29170    1.000
    N1665    N        0.40236    0.16776    0.35198    1.000
    N1666    N        0.43917    0.17040    0.29859    1.000
    N1667    N        0.47544    0.16240    0.36356    1.000
    N1668    N        0.48221    0.13650    0.25868    1.000
    Si1669   Si       0.46920    0.17673    0.26786    1.000
    Si1670   Si       0.44263    0.18005    0.34187    1.000
    N1671    N        0.40762    0.13665    0.24947    1.000
    Si1672   Si       0.40178    0.12455    0.35948    1.000
    N1673    N        0.24205    0.16305    0.40515    1.000
    N1674    N        0.33909    0.16920    0.47619    1.000
    N1675    N        0.26789    0.14897    0.46709    1.000
    N1676    N        0.31103    0.15110    0.39973    1.000
    Si1677   Si       0.28036    0.16784    0.42946    1.000
    Si1678   Si       0.35258    0.16607    0.39372    1.000
    N1679    N        0.40650    0.16856    0.48929    1.000
    N1680    N        0.38013    0.17814    0.42473    1.000
    Si1681   Si       0.37689    0.15474    0.46014    1.000
    N1682    N        0.48601    0.13485    0.42887    1.000
    Si1683   Si       0.45671    0.15160    0.40283    1.000
    N1684    N        0.29510    0.15776    0.54128    1.000
    Si1685   Si       0.32698    0.16960    0.56621    1.000
    Si1686   Si       0.25305    0.16358    0.55461    1.000
    N1687    N        0.32948    0.14620    0.60144    1.000
    N1688    N        0.35915    0.15431    0.53561    1.000
    Si1689   Si       0.32295    0.14459    0.51008    1.000
    N1690    N        0.48032    0.15554    0.54576    1.000
    N1691    N        0.45854    0.17201    0.61350    1.000
    N1692    N        0.42133    0.16446    0.55018    1.000
    Si1693   Si       0.44901    0.15867    0.51047    1.000
    Si1694   Si       0.45661    0.18318    0.57110    1.000
    Si1695   Si       0.39255    0.13064    0.55358    1.000
    Si1696   Si       0.38935    0.18555    0.52425    1.000
    N1697    N        0.39042    0.18570    0.61922    1.000
    Si1698   Si       0.26320    0.15470    0.70071    1.000
    N1699    N        0.30247    0.13884    0.70748    1.000
    N1700    N        0.35469    0.13774    0.66154    1.000
    N1701    N        0.26420    0.17945    0.66511    1.000
    N1702    N        0.25658    0.18277    0.73439    1.000
    Si1703   Si       0.36871    0.14768    0.62187    1.000
    Si1704   Si       0.38776    0.14828    0.68804    1.000
    N1705    N        0.46122    0.16085    0.74414    1.000
    Si1706   Si       0.47075    0.17131    0.70455    1.000
    N1707    N        0.41607    0.13749    0.65564    1.000
    N1708    N        0.36726    0.18383    0.70922    1.000
    Si1709   Si       0.42691    0.17677    0.64124    1.000
    Si1710   Si       0.30627    0.16889    0.83201    1.000
    N1711    N        0.32042    0.17699    0.75793    1.000
    N1712    N        0.29716    0.13072    0.81545    1.000
    Si1713   Si       0.31113    0.13513    0.75108    1.000
    N1714    N        0.24074    0.13424    0.85255    1.000
    Si1715   Si       0.25805    0.12131    0.79971    1.000
    N1716    N        0.38895    0.16423    0.77540    1.000
    N1717    N        0.40928    0.15545    0.84458    1.000
    Si1718   Si       0.37524    0.15927    0.81858    1.000
    N1719    N        0.47580    0.15323    0.86024    1.000
    Si1720   Si       0.44238    0.18139    0.85161    1.000
    Si1721   Si       0.48966    0.12769    0.75877    1.000
    Si1722   Si       0.43281    0.18181    0.76902    1.000
    N1723    N        0.30815    0.16117    0.87552    1.000
    Si1724   Si       0.27456    0.13358    0.87822    1.000
    N1725    N        0.25489    0.14757    0.91496    1.000
    Si1726   Si       0.47478    0.13960    0.90040    1.000
    N1727    N        0.43872    0.16555    0.90998    1.000
    Si1728   Si       0.39802    0.15356    0.92071    1.000
    N1729    N        0.36926    0.18183    0.90453    1.000
    N1730    N        0.40365    0.14715    0.96316    1.000
    Si1731   Si       0.40152    0.18734    0.98135    1.000
    Si1732   Si       0.34807    0.21895    0.09174    1.000
    Si1733   Si       0.26295    0.20245    0.01791    1.000
    Si1734   Si       0.27273    0.22133    0.09122    1.000
    N1735    N        0.30368    0.20914    0.00938    1.000
    N1736    N        0.25223    0.19628    0.06237    1.000
    N1737    N        0.31160    0.23578    0.07696    1.000
    Si1738   Si       0.33991    0.19233    0.02790    1.000
    N1739    N        0.36935    0.20995    0.05585    1.000
    N1740    N        0.47769    0.22519    0.04600    1.000
    Si1741   Si       0.41245    0.21632    0.05418    1.000
    N1742    N        0.42459    0.20353    0.09627    1.000
    N1743    N        0.42618    0.19243    0.01997    1.000
    Si1744   Si       0.46923    0.18608    0.03148    1.000
    Si1745   Si       0.23951    0.19439    0.15452    1.000
    N1746    N        0.27645    0.19933    0.12850    1.000
    Si1747   Si       0.29652    0.19669    0.20879    1.000
    N1748    N        0.32356    0.20481    0.17730    1.000
    N1749    N        0.28595    0.23474    0.22634    1.000
    N1750    N        0.35575    0.24142    0.13093    1.000
    N1751    N        0.45464    0.20160    0.16144    1.000
    Si1752   Si       0.44584    0.22909    0.12723    1.000
    N1753    N        0.37684    0.20003    0.23350    1.000
    Si1754   Si       0.38612    0.24016    0.22125    1.000
    Si1755   Si       0.45969    0.21472    0.20270    1.000
    N1756    N        0.33650    0.22750    0.27847    1.000
    N1757    N        0.27040    0.23366    0.29874    1.000
    Si1758   Si       0.25757    0.19313    0.30764    1.000
    Si1759   Si       0.34488    0.18721    0.26246    1.000
    N1760    N        0.33951    0.18875    0.35877    1.000
    Si1761   Si       0.37230    0.19216    0.33001    1.000
    N1762    N        0.44992    0.22403    0.34618    1.000
    N1763    N        0.38598    0.23276    0.32514    1.000
    Si1764   Si       0.48688    0.22956    0.32098    1.000
    N1765    N        0.27869    0.21712    0.37332    1.000
    Si1766   Si       0.32794    0.21078    0.46779    1.000
    N1767    N        0.29787    0.20744    0.43634    1.000
    Si1768   Si       0.29381    0.24187    0.40894    1.000
    N1769    N        0.35515    0.24175    0.45139    1.000
    N1770    N        0.44704    0.18958    0.42396    1.000
    N1771    N        0.41964    0.24124    0.46132    1.000
    N1772    N        0.46580    0.19528    0.49410    1.000
    Si1773   Si       0.47951    0.19793    0.45166    1.000
    N1774    N        0.39483    0.24060    0.39662    1.000
    N1775    N        0.48602    0.24203    0.44738    1.000
    Si1776   Si       0.40929    0.21216    0.42849    1.000
    N1777    N        0.34246    0.20815    0.57177    1.000
    Si1778   Si       0.27234    0.22512    0.51858    1.000
    N1779    N        0.31522    0.22351    0.50824    1.000
    Si1780   Si       0.24815    0.22857    0.59414    1.000
    Si1781   Si       0.34276    0.23530    0.53854    1.000
    Si1782   Si       0.35865    0.21528    0.61344    1.000
    N1783    N        0.24603    0.19136    0.52063    1.000
    N1784    N        0.25075    0.18427    0.59259    1.000
    Si1785   Si       0.47993    0.22577    0.52133    1.000
    N1786    N        0.38054    0.22765    0.51694    1.000
    N1787    N        0.46549    0.22234    0.56123    1.000
    Si1788   Si       0.29479    0.20628    0.73836    1.000
    N1789    N        0.32978    0.21032    0.64512    1.000
    Si1790   Si       0.34901    0.21608    0.68459    1.000
    N1791    N        0.30632    0.22631    0.70129    1.000
    Si1792   Si       0.28867    0.21638    0.66060    1.000
    N1793    N        0.26379    0.23968    0.63226    1.000
    Si1794   Si       0.42182    0.22624    0.69889    1.000
    N1795    N        0.44026    0.19264    0.67812    1.000
    N1796    N        0.41832    0.21771    0.74115    1.000
    N1797    N        0.38508    0.24011    0.68100    1.000
    Si1798   Si       0.34951    0.22993    0.81289    1.000
    Si1799   Si       0.28530    0.23318    0.85760    1.000
    N1800    N        0.27246    0.19550    0.83573    1.000
    N1801    N        0.36337    0.22788    0.77191    1.000
    N1802    N        0.34478    0.18815    0.82599    1.000
    Si1803   Si       0.36131    0.19040    0.75214    1.000
    N1804    N        0.28968    0.24344    0.75897    1.000
    Si1805   Si       0.48370    0.21920    0.80464    1.000
    N1806    N        0.44870    0.19377    0.80867    1.000
    N1807    N        0.48045    0.23933    0.76493    1.000
    Si1808   Si       0.32380    0.21220    0.97116    1.000
    N1809    N        0.26183    0.22258    0.89614    1.000
    N1810    N        0.32586    0.23248    0.88069    1.000
    N1811    N        0.30770    0.19473    0.93577    1.000
    Si1812   Si       0.32922    0.19311    0.89810    1.000
    N1813    N        0.35994    0.19478    0.98961    1.000
    Si1814   Si       0.26541    0.18892    0.92366    1.000
    Si1815   Si       0.44587    0.20907    0.91719    1.000
    N1816    N        0.44481    0.21775    0.87421    1.000
    N1817    N        0.48461    0.21575    0.93605    1.000
    N1818    N        0.41777    0.21362    0.95317    1.000
    Si1819   Si       0.32344    0.27739    0.06734    1.000
    N1820    N        0.24823    0.25530    0.10680    1.000
    N1821    N        0.31823    0.29208    0.02626    1.000
    N1822    N        0.36780    0.28038    0.08051    1.000
    N1823    N        0.41918    0.25790    0.04651    1.000
    Si1824   Si       0.45814    0.26066    0.02906    1.000
    Si1825   Si       0.39990    0.29475    0.05531    1.000
    N1826    N        0.47604    0.30100    0.03938    1.000
    N1827    N        0.48340    0.24484    0.11492    1.000
    Si1828   Si       0.27097    0.28761    0.12724    1.000
    Si1829   Si       0.26330    0.25489    0.19611    1.000
    N1830    N        0.29243    0.26853    0.16448    1.000
    N1831    N        0.24873    0.29038    0.21502    1.000
    Si1832   Si       0.33101    0.24591    0.16620    1.000
    N1833    N        0.36242    0.26218    0.19240    1.000
    N1834    N        0.47590    0.28576    0.24487    1.000
    N1835    N        0.42323    0.26471    0.13757    1.000
    Si1836   Si       0.43315    0.28545    0.23514    1.000
    Si1837   Si       0.44387    0.29357    0.16338    1.000
    N1838    N        0.42872    0.24481    0.21107    1.000
    Si1839   Si       0.38346    0.27613    0.12266    1.000
    N1840    N        0.47995    0.27495    0.17604    1.000
    N1841    N        0.29669    0.28705    0.27242    1.000
    Si1842   Si       0.26361    0.27350    0.31586    1.000
    N1843    N        0.36068    0.29459    0.30139    1.000
    N1844    N        0.29090    0.30215    0.33671    1.000
    Si1845   Si       0.29751    0.24417    0.26619    1.000
    Si1846   Si       0.36864    0.25240    0.29186    1.000
    N1847    N        0.39422    0.26710    0.25711    1.000
    N1848    N        0.41583    0.28897    0.34364    1.000
    Si1849   Si       0.45774    0.29957    0.33802    1.000
    N1850    N        0.48112    0.27264    0.31345    1.000
    Si1851   Si       0.41245    0.24609    0.35675    1.000
    N1852    N        0.32482    0.27169    0.39919    1.000
    N1853    N        0.25590    0.25701    0.42435    1.000
    Si1854   Si       0.36451    0.26678    0.41534    1.000
    N1855    N        0.25699    0.25837    0.49431    1.000
    Si1856   Si       0.45432    0.26436    0.46757    1.000
    Si1857   Si       0.38491    0.25426    0.48357    1.000
    N1858    N        0.39103    0.30382    0.41901    1.000
    N1859    N        0.37832    0.29635    0.48795    1.000
    N1860    N        0.46897    0.30207    0.38107    1.000
    N1861    N        0.45386    0.30411    0.44919    1.000
    N1862    N        0.34510    0.27860    0.54808    1.000
    Si1863   Si       0.25335    0.27996    0.53277    1.000
    Si1864   Si       0.35272    0.29218    0.58899    1.000
    N1865    N        0.26530    0.24548    0.55663    1.000
    N1866    N        0.36917    0.25699    0.61187    1.000
    Si1867   Si       0.47485    0.25874    0.58214    1.000
    N1868    N        0.47182    0.26761    0.50731    1.000
    N1869    N        0.47682    0.29838    0.56619    1.000
    N1870    N        0.28365    0.28537    0.67283    1.000
    Si1871   Si       0.29016    0.26772    0.71260    1.000
    Si1872   Si       0.24855    0.27823    0.64548    1.000
    N1873    N        0.24783    0.26736    0.72069    1.000
    Si1874   Si       0.49168    0.24292    0.72293    1.000
    N1875    N        0.41901    0.29245    0.64763    1.000
    Si1876   Si       0.45751    0.27516    0.65765    1.000
    N1877    N        0.45649    0.25743    0.69894    1.000
    Si1878   Si       0.38086    0.27327    0.65021    1.000
    N1879    N        0.38652    0.28435    0.73229    1.000
    N1880    N        0.47450    0.25224    0.62532    1.000
    Si1881   Si       0.29022    0.27277    0.79276    1.000
    N1882    N        0.25642    0.26677    0.85525    1.000
    N1883    N        0.24915    0.27895    0.78947    1.000
    Si1884   Si       0.24346    0.24923    0.76070    1.000
    N1885    N        0.31040    0.24986    0.82157    1.000
    N1886    N        0.37108    0.25738    0.83804    1.000
    Si1887   Si       0.39731    0.25081    0.75895    1.000
    Si1888   Si       0.40119    0.28677    0.82919    1.000
    N1889    N        0.41676    0.27343    0.79051    1.000
    Si1890   Si       0.45947    0.27222    0.78869    1.000
    N1891    N        0.42877    0.28641    0.86485    1.000
    N1892    N        0.47296    0.25555    0.82598    1.000
    Si1893   Si       0.46332    0.25845    0.86804    1.000
    Si1894   Si       0.34140    0.27121    0.86761    1.000
    N1895    N        0.25386    0.29645    0.91313    1.000
    N1896    N        0.33231    0.25342    0.96550    1.000
    Si1897   Si       0.35572    0.28187    0.94373    1.000
    Si1898   Si       0.30913    0.28602    0.98471    1.000
    N1899    N        0.26644    0.29243    0.98516    1.000
    Si1900   Si       0.48247    0.30413    0.99348    1.000
    N1901    N        0.36719    0.28317    0.90174    1.000
    N1902    N        0.39734    0.28680    0.95799    1.000
    N1903    N        0.44467    0.26385    0.92138    1.000
    Si1904   Si       0.40902    0.28831    0.90637    1.000
    Si1905   Si       0.48826    0.26305    0.93312    1.000
    Si1906   Si       0.42897    0.25585    0.96204    1.000
    N1907    N        0.46391    0.26433    0.98788    1.000
    Si1908   Si       0.31826    0.34360    0.09306    1.000
    Si1909   Si       0.34499    0.32571    0.02755    1.000
    N1910    N        0.35184    0.34396    0.06627    1.000
    N1911    N        0.26307    0.35449    0.02449    1.000
    Si1912   Si       0.24453    0.31771    0.01475    1.000
    N1913    N        0.30161    0.30338    0.09728    1.000
    Si1914   Si       0.46635    0.34057    0.05987    1.000
    N1915    N        0.42270    0.32733    0.07425    1.000
    N1916    N        0.38655    0.31359    0.01903    1.000
    Si1917   Si       0.39198    0.35975    0.06792    1.000
    N1918    N        0.32670    0.35875    0.13252    1.000
    N1919    N        0.24174    0.31429    0.15091    1.000
    N1920    N        0.37774    0.31235    0.14724    1.000
    N1921    N        0.36417    0.32387    0.22601    1.000
    Si1922   Si       0.37767    0.30390    0.18983    1.000
    Si1923   Si       0.36887    0.35571    0.14003    1.000
    N1924    N        0.45809    0.32724    0.13727    1.000
    N1925    N        0.42024    0.30466    0.19853    1.000
    Si1926   Si       0.26765    0.33761    0.34975    1.000
    N1927    N        0.33002    0.35062    0.28736    1.000
    Si1928   Si       0.31985    0.30902    0.30270    1.000
    Si1929   Si       0.26191    0.30548    0.25326    1.000
    N1930    N        0.35709    0.32083    0.36609    1.000
    N1931    N        0.27074    0.34752    0.24737    1.000
    Si1932   Si       0.43156    0.35439    0.29474    1.000
    Si1933   Si       0.38309    0.31656    0.33344    1.000
    N1934    N        0.39666    0.35486    0.32200    1.000
    N1935    N        0.46342    0.33950    0.32173    1.000
    N1936    N        0.42187    0.32416    0.26667    1.000
    Si1937   Si       0.38112    0.30973    0.26409    1.000
    N1938    N        0.29530    0.34414    0.38583    1.000
    N1939    N        0.36404    0.35506    0.43671    1.000
    Si1940   Si       0.31612    0.30802    0.37479    1.000
    N1941    N        0.31431    0.32743    0.49567    1.000
    N1942    N        0.42711    0.35196    0.40422    1.000
    Si1943   Si       0.38888    0.32737    0.45987    1.000
    Si1944   Si       0.38174    0.34209    0.39696    1.000
    Si1945   Si       0.48812    0.32835    0.45787    1.000
    N1946    N        0.41908    0.35762    0.47303    1.000
    Si1947   Si       0.43573    0.31003    0.41026    1.000
    Si1948   Si       0.27947    0.32632    0.59567    1.000
    N1949    N        0.27064    0.31304    0.55359    1.000
    Si1950   Si       0.34882    0.30939    0.51759    1.000
    Si1951   Si       0.24779    0.34557    0.53620    1.000
    N1952    N        0.31493    0.30631    0.61011    1.000
    N1953    N        0.24487    0.31308    0.61847    1.000
    N1954    N        0.36384    0.34658    0.53496    1.000
    Si1955   Si       0.46420    0.33831    0.56799    1.000
    N1956    N        0.38445    0.32132    0.59437    1.000
    N1957    N        0.45275    0.34125    0.61115    1.000
    Si1958   Si       0.39372    0.35298    0.56602    1.000
    N1959    N        0.43168    0.35138    0.54514    1.000
    N1960    N        0.29394    0.35188    0.66285    1.000
    Si1961   Si       0.31214    0.31233    0.65546    1.000
    Si1962   Si       0.35736    0.31098    0.71200    1.000
    Si1963   Si       0.26180    0.35534    0.69210    1.000
    N1964    N        0.35215    0.30374    0.66850    1.000
    N1965    N        0.31795    0.30162    0.72765    1.000
    Si1966   Si       0.41154    0.33020    0.62717    1.000
    N1967    N        0.48843    0.30770    0.66192    1.000
    Si1968   Si       0.48449    0.34472    0.64096    1.000
    N1969    N        0.37043    0.35327    0.71656    1.000
    Si1970   Si       0.32974    0.32598    0.82566    1.000
    Si1971   Si       0.30667    0.33543    0.75583    1.000
    N1972    N        0.30743    0.31153    0.79143    1.000
    N1973    N        0.24504    0.33058    0.84727    1.000
    N1974    N        0.31523    0.30499    0.86329    1.000
    N1975    N        0.37359    0.32299    0.82181    1.000
    N1976    N        0.43918    0.33898    0.82672    1.000
    Si1977   Si       0.47368    0.34123    0.80009    1.000
    N1978    N        0.47835    0.30736    0.77374    1.000
    Si1979   Si       0.39920    0.35846    0.81922    1.000
    Si1980   Si       0.44200    0.32835    0.86907    1.000
    Si1981   Si       0.27460    0.31643    0.87894    1.000
    N1982    N        0.32404    0.31384    0.95280    1.000
    Si1983   Si       0.31894    0.35065    0.93123    1.000
    N1984    N        0.28225    0.35223    0.90384    1.000
    N1985    N        0.44698    0.32891    0.98354    1.000
    Si1986   Si       0.46697    0.33623    0.92847    1.000
    N1987    N        0.47989    0.33499    0.88788    1.000
    N1988    N        0.42100    0.33239    0.90948    1.000
    Si1989   Si       0.40545    0.32066    0.98166    1.000
    N1990    N        0.38775    0.35600    0.96504    1.000
    N1991    N        0.29022    0.37938    0.08658    1.000
    Si1992   Si       0.25074    0.37238    0.06507    1.000
    Si1993   Si       0.29437    0.37608    0.00459    1.000
    N1994    N        0.29930    0.41178    0.03022    1.000
    Si1995   Si       0.31366    0.41414    0.07060    1.000
    N1996    N        0.33580    0.36183    0.00753    1.000
    N1997    N        0.39756    0.38550    0.03513    1.000
    N1998    N        0.45823    0.37797    0.08509    1.000
    N1999    N        0.39367    0.37745    0.10997    1.000
    N2000    N        0.48298    0.36244    0.02380    1.000
    Si2001   Si       0.38446    0.42318    0.10997    1.000
    Si2002   Si       0.37185    0.38256    0.99749    1.000
    Si2003   Si       0.24021    0.41878    0.16506    1.000
    Si2004   Si       0.36400    0.36539    0.21654    1.000
    Si2005   Si       0.24365    0.37670    0.22750    1.000
    Si2006   Si       0.28956    0.38483    0.13128    1.000
    N2007    N        0.26141    0.40811    0.20497    1.000
    Si2008   Si       0.30311    0.41753    0.19478    1.000
    N2009    N        0.24667    0.38274    0.14137    1.000
    N2010    N        0.32528    0.38176    0.20703    1.000
    N2011    N        0.38548    0.37112    0.17839    1.000
    N2012    N        0.44457    0.39661    0.14560    1.000
    Si2013   Si       0.48612    0.40767    0.14093    1.000
    Si2014   Si       0.41084    0.40697    0.17140    1.000
    Si2015   Si       0.43630    0.36261    0.11974    1.000
    N2016    N        0.30572    0.40749    0.27852    1.000
    Si2017   Si       0.34796    0.39004    0.28213    1.000
    Si2018   Si       0.29033    0.36683    0.27928    1.000
    N2019    N        0.36257    0.41406    0.31445    1.000
    N2020    N        0.26587    0.36246    0.31490    1.000
    Si2021   Si       0.46066    0.41164    0.31580    1.000
    N2022    N        0.43955    0.39626    0.27945    1.000
    Si2023   Si       0.38748    0.39260    0.34345    1.000
    N2024    N        0.42553    0.41426    0.34112    1.000
    Si2025   Si       0.41374    0.41704    0.25041    1.000
    N2026    N        0.37587    0.39363    0.24886    1.000
    N2027    N        0.24243    0.38789    0.40027    1.000
    Si2028   Si       0.28196    0.37462    0.41344    1.000
    N2029    N        0.31107    0.40348    0.41012    1.000
    Si2030   Si       0.35288    0.39321    0.41962    1.000
    N2031    N        0.32765    0.39552    0.48916    1.000
    N2032    N        0.27128    0.36667    0.45583    1.000
    Si2033   Si       0.29496    0.36585    0.49080    1.000
    N2034    N        0.37282    0.38351    0.38217    1.000
    Si2035   Si       0.44145    0.37645    0.43894    1.000
    N2036    N        0.44043    0.41912    0.44612    1.000
    N2037    N        0.48574    0.36783    0.44094    1.000
    Si2038   Si       0.28843    0.39794    0.56379    1.000
    N2039    N        0.27485    0.37787    0.52837    1.000
    Si2040   Si       0.35231    0.38640    0.52264    1.000
    N2041    N        0.33213    0.40463    0.55953    1.000
    N2042    N        0.28101    0.37096    0.59715    1.000
    N2043    N        0.39229    0.38795    0.59096    1.000
    Si2044   Si       0.42496    0.37835    0.50920    1.000
    N2045    N        0.39106    0.40555    0.51589    1.000
    N2046    N        0.46417    0.39689    0.50306    1.000
    Si2047   Si       0.27936    0.38401    0.63929    1.000
    N2048    N        0.24135    0.38660    0.66404    1.000
    N2049    N        0.28265    0.36209    0.73129    1.000
    N2050    N        0.43410    0.38641    0.71752    1.000
    N2051    N        0.39824    0.36380    0.65157    1.000
    N2052    N        0.47163    0.38232    0.65999    1.000
    Si2053   Si       0.39854    0.40535    0.63328    1.000
    Si2054   Si       0.39942    0.37748    0.69236    1.000
    Si2055   Si       0.46811    0.40607    0.69747    1.000
    Si2056   Si       0.32382    0.39540    0.80493    1.000
    N2057    N        0.28478    0.41023    0.79411    1.000
    N2058    N        0.32694    0.36791    0.83807    1.000
    Si2059   Si       0.27149    0.39644    0.75556    1.000
    N2060    N        0.33174    0.36833    0.77152    1.000
    Si2061   Si       0.35016    0.38724    0.87092    1.000
    Si2062   Si       0.36959    0.37945    0.75177    1.000
    N2063    N        0.39247    0.38444    0.85388    1.000
    Si2064   Si       0.43544    0.39712    0.76022    1.000
    N2065    N        0.40326    0.37399    0.77905    1.000
    N2066    N        0.47268    0.37744    0.77620    1.000
    N2067    N        0.45582    0.41317    0.86638    1.000
    Si2068   Si       0.26311    0.38203    0.93084    1.000
    N2069    N        0.29264    0.37405    0.96127    1.000
    N2070    N        0.35132    0.36505    0.90862    1.000
    N2071    N        0.26079    0.42382    0.92545    1.000
    Si2072   Si       0.41415    0.41678    0.87602    1.000
    Si2073   Si       0.45862    0.37155    0.98688    1.000
    N2074    N        0.43505    0.40691    0.98658    1.000
    Si2075   Si       0.39124    0.36360    0.92359    1.000
    N2076    N        0.47921    0.37230    0.94782    1.000
    N2077    N        0.41003    0.40267    0.91697    1.000
    N2078    N        0.28754    0.44414    0.08829    1.000
    Si2079   Si       0.29538    0.45072    0.01409    1.000
    Si2080   Si       0.24935    0.44972    0.06290    1.000
    N2081    N        0.33186    0.47104    0.02589    1.000
    N2082    N        0.25903    0.46884    0.02419    1.000
    N2083    N        0.35432    0.42893    0.07800    1.000
    Si2084   Si       0.36387    0.46566    0.05481    1.000
    N2085    N        0.42228    0.44283    0.09835    1.000
    N2086    N        0.39943    0.45836    0.03104    1.000
    N2087    N        0.45940    0.43024    0.04307    1.000
    Si2088   Si       0.42183    0.41956    0.02459    1.000
    Si2089   Si       0.45653    0.42135    0.08484    1.000
    Si2090   Si       0.28870    0.45993    0.12910    1.000
    N2091    N        0.32897    0.45054    0.20672    1.000
    Si2092   Si       0.35410    0.46034    0.17296    1.000
    N2093    N        0.24388    0.45641    0.14337    1.000
    Si2094   Si       0.31540    0.47496    0.24217    1.000
    N2095    N        0.29780    0.41968    0.15175    1.000
    N2096    N        0.42556    0.42874    0.20639    1.000
    Si2097   Si       0.41453    0.47209    0.21466    1.000
    Si2098   Si       0.46646    0.44280    0.20721    1.000
    N2099    N        0.37720    0.43081    0.15183    1.000
    N2100    N        0.30431    0.45758    0.32978    1.000
    Si2101   Si       0.34732    0.45427    0.32637    1.000
    Si2102   Si       0.28451    0.44306    0.29334    1.000
    N2103    N        0.27531    0.46720    0.25814    1.000
    N2104    N        0.33955    0.46973    0.27709    1.000
    N2105    N        0.24643    0.43155    0.31363    1.000
    N2106    N        0.37112    0.45196    0.36701    1.000
    N2107    N        0.46966    0.45578    0.31037    1.000
    Si2108   Si       0.40828    0.45318    0.34541    1.000
    N2109    N        0.40343    0.45903    0.25412    1.000
    Si2110   Si       0.47261    0.47525    0.34796    1.000
    N2111    N        0.38898    0.47980    0.31563    1.000
    N2112    N        0.48583    0.43945    0.24525    1.000
    Si2113   Si       0.29664    0.44329    0.41409    1.000
    N2114    N        0.29259    0.45012    0.45808    1.000
    Si2115   Si       0.25490    0.46432    0.47338    1.000
    Si2116   Si       0.33151    0.43490    0.47348    1.000
    N2117    N        0.26488    0.45448    0.38611    1.000
    N2118    N        0.32509    0.47737    0.40786    1.000
    N2119    N        0.36417    0.43119    0.44184    1.000
    Si2120   Si       0.36548    0.46514    0.40975    1.000
    N2121    N        0.40304    0.47657    0.42598    1.000
    N2122    N        0.41891    0.46324    0.49641    1.000
    Si2123   Si       0.40718    0.44465    0.45555    1.000
    Si2124   Si       0.47926    0.42641    0.47180    1.000
    N2125    N        0.48718    0.46529    0.49086    1.000
    N2126    N        0.27052    0.43656    0.57322    1.000
    Si2127   Si       0.27603    0.45606    0.61274    1.000
    N2128    N        0.34979    0.46368    0.50113    1.000
    N2129    N        0.23818    0.44031    0.50705    1.000
    Si2130   Si       0.36340    0.42031    0.58359    1.000
    N2131    N        0.38434    0.45372    0.56529    1.000
    Si2132   Si       0.42134    0.46335    0.58752    1.000
    N2133    N        0.45335    0.45930    0.55917    1.000
    Si2134   Si       0.38586    0.44926    0.52202    1.000
    Si2135   Si       0.45556    0.47325    0.51837    1.000
    N2136    N        0.42802    0.43534    0.61942    1.000
    N2137    N        0.35665    0.42639    0.62537    1.000
    N2138    N        0.33576    0.45797    0.68901    1.000
    Si2139   Si       0.25069    0.45926    0.72241    1.000
    N2140    N        0.28369    0.43060    0.73033    1.000
    Si2141   Si       0.32680    0.44650    0.64713    1.000
    Si2142   Si       0.31356    0.46444    0.72517    1.000
    N2143    N        0.29079    0.42408    0.64095    1.000
    N2144    N        0.36816    0.42174    0.74056    1.000
    N2145    N        0.46728    0.44286    0.67427    1.000
    Si2146   Si       0.37572    0.44671    0.70472    1.000
    Si2147   Si       0.46525    0.41969    0.63669    1.000
    N2148    N        0.39372    0.41755    0.67623    1.000
    Si2149   Si       0.26235    0.44071    0.81754    1.000
    N2150    N        0.26786    0.44835    0.86015    1.000
    N2151    N        0.35450    0.42626    0.80509    1.000
    N2152    N        0.33557    0.47618    0.75921    1.000
    Si2153   Si       0.36259    0.45333    0.83734    1.000
    Si2154   Si       0.37104    0.45130    0.77474    1.000
    N2155    N        0.42893    0.43856    0.77033    1.000
    N2156    N        0.40049    0.45395    0.86006    1.000
    N2157    N        0.33801    0.42766    0.86869    1.000
    Si2158   Si       0.30766    0.45746    0.87266    1.000
    Si2159   Si       0.23651    0.43748    0.89026    1.000
    Si2160   Si       0.28018    0.45832    0.94100    1.000
    Si2161   Si       0.34847    0.45808    0.98420    1.000
    N2162    N        0.30817    0.44809    0.97279    1.000
    N2163    N        0.30659    0.47642    0.91044    1.000
    N2164    N        0.42404    0.46475    0.94392    1.000
    N2165    N        0.37235    0.42214    0.97893    1.000
    Si2166   Si       0.46404    0.47224    0.92655    1.000
    Si2167   Si       0.40996    0.42571    0.95534    1.000
    N2168    N        0.27585    0.50469    0.11831    1.000
    Si2169   Si       0.36322    0.53509    0.08993    1.000
    N2170    N        0.24009    0.53542    0.00336    1.000
    N2171    N        0.37770    0.49665    0.07948    1.000
    N2172    N        0.44190    0.50450    0.05882    1.000
    Si2173   Si       0.42838    0.48881    0.01969    1.000
    Si2174   Si       0.41962    0.48524    0.09002    1.000
    N2175    N        0.46700    0.47838    0.99954    1.000
    N2176    N        0.24836    0.50253    0.20720    1.000
    Si2177   Si       0.31377    0.52091    0.13607    1.000
    Si2178   Si       0.28506    0.53050    0.20603    1.000
    N2179    N        0.31688    0.51801    0.23295    1.000
    N2180    N        0.32479    0.48032    0.14689    1.000
    N2181    N        0.35709    0.53487    0.13219    1.000
    Si2182   Si       0.39530    0.52077    0.15620    1.000
    N2183    N        0.45579    0.48485    0.20971    1.000
    Si2184   Si       0.47370    0.51771    0.23058    1.000
    N2185    N        0.42762    0.50720    0.12744    1.000
    N2186    N        0.38595    0.48974    0.18775    1.000
    N2187    N        0.28992    0.51643    0.36006    1.000
    Si2188   Si       0.27091    0.47822    0.35025    1.000
    Si2189   Si       0.41144    0.51505    0.33187    1.000
    N2190    N        0.38049    0.53085    0.26027    1.000
    Si2191   Si       0.37825    0.48728    0.27490    1.000
    N2192    N        0.43213    0.48810    0.35988    1.000
    Si2193   Si       0.48132    0.53496    0.30025    1.000
    N2194    N        0.43666    0.53151    0.30284    1.000
    Si2195   Si       0.31049    0.51677    0.39812    1.000
    N2196    N        0.32329    0.52626    0.47468    1.000
    Si2197   Si       0.28199    0.53369    0.46641    1.000
    N2198    N        0.25386    0.50652    0.48558    1.000
    N2199    N        0.28156    0.53624    0.42307    1.000
    N2200    N        0.34945    0.53783    0.41023    1.000
    Si2201   Si       0.43290    0.49873    0.40408    1.000
    N2202    N        0.47173    0.49085    0.42014    1.000
    N2203    N        0.30910    0.50676    0.54194    1.000
    Si2204   Si       0.33763    0.50462    0.50947    1.000
    N2205    N        0.35720    0.53305    0.62056    1.000
    N2206    N        0.42255    0.50740    0.59285    1.000
    N2207    N        0.37283    0.52323    0.52276    1.000
    N2208    N        0.47194    0.51462    0.52646    1.000
    Si2209   Si       0.46286    0.52163    0.57043    1.000
    Si2210   Si       0.40036    0.53477    0.61599    1.000
    Si2211   Si       0.31879    0.52263    0.63418    1.000
    Si2212   Si       0.27508    0.52644    0.69459    1.000
    N2213    N        0.27869    0.49144    0.71914    1.000
    N2214    N        0.24621    0.51911    0.66457    1.000
    N2215    N        0.31073    0.48026    0.62504    1.000
    Si2216   Si       0.48240    0.48284    0.68105    1.000
    N2217    N        0.45775    0.51183    0.70115    1.000
    N2218    N        0.39610    0.48406    0.71071    1.000
    Si2219   Si       0.42250    0.51235    0.72791    1.000
    Si2220   Si       0.45842    0.53940    0.66733    1.000
    Si2221   Si       0.32178    0.49058    0.79743    1.000
    Si2222   Si       0.27049    0.52282    0.81129    1.000
    Si2223   Si       0.32583    0.52794    0.84891    1.000
    N2224    N        0.31442    0.53338    0.80350    1.000
    N2225    N        0.32796    0.48201    0.84090    1.000
    N2226    N        0.24002    0.52840    0.78202    1.000
    N2227    N        0.27715    0.53868    0.85316    1.000
    N2228    N        0.27670    0.47883    0.80206    1.000
    N2229    N        0.42959    0.50728    0.76952    1.000
    Si2230   Si       0.40416    0.51946    0.80294    1.000
    N2231    N        0.40787    0.52421    0.84873    1.000
    Si2232   Si       0.42650    0.48705    0.85604    1.000
    N2233    N        0.37877    0.48335    0.80390    1.000
    N2234    N        0.45785    0.48402    0.82250    1.000
    Si2235   Si       0.45459    0.47353    0.78022    1.000
    Si2236   Si       0.33262    0.50826    0.92521    1.000
    N2237    N        0.34812    0.52183    0.88763    1.000
    N2238    N        0.25459    0.48920    0.95536    1.000
    N2239    N        0.35994    0.48889    0.95504    1.000
    Si2240   Si       0.48788    0.54060    0.90581    1.000
    N2241    N        0.41232    0.51876    0.98984    1.000
    Si2242   Si       0.40197    0.50187    0.95060    1.000
    N2243    N        0.40529    0.53023    0.91854    1.000
    N2244    N        0.47832    0.51145    0.93931    1.000
    N2245    N        0.45953    0.48361    0.88446    1.000
    N2246    N        0.26721    0.57201    0.05721    1.000
    Si2247   Si       0.26208    0.57102    0.01335    1.000
    Si2248   Si       0.30826    0.57900    0.07094    1.000
    N2249    N        0.31143    0.58931    0.11365    1.000
    Si2250   Si       0.23978    0.59299    0.08469    1.000
    N2251    N        0.32477    0.53943    0.07182    1.000
    N2252    N        0.37654    0.57744    0.08733    1.000
    N2253    N        0.42747    0.56689    0.03499    1.000
    N2254    N        0.44275    0.56627    0.09472    1.000
    Si2255   Si       0.41432    0.58681    0.07045    1.000
    Si2256   Si       0.46023    0.54472    0.05684    1.000
    N2257    N        0.36902    0.58315    0.99717    1.000
    N2258    N        0.48645    0.54269    0.01498    1.000
    Si2259   Si       0.40758    0.56130    0.99771    1.000
    Si2260   Si       0.35355    0.59493    0.11989    1.000
    N2261    N        0.24496    0.58176    0.12685    1.000
    N2262    N        0.26640    0.56393    0.22355    1.000
    Si2263   Si       0.28311    0.58372    0.14652    1.000
    N2264    N        0.29747    0.54724    0.16734    1.000
    N2265    N        0.33178    0.58200    0.22070    1.000
    Si2266   Si       0.29086    0.59832    0.21672    1.000
    Si2267   Si       0.43220    0.57573    0.20405    1.000
    N2268    N        0.43998    0.54514    0.23471    1.000
    Si2269   Si       0.44782    0.54577    0.13278    1.000
    N2270    N        0.41967    0.55448    0.16629    1.000
    N2271    N        0.33225    0.57194    0.28910    1.000
    N2272    N        0.27111    0.57790    0.31291    1.000
    Si2273   Si       0.28115    0.55846    0.35205    1.000
    Si2274   Si       0.35017    0.57462    0.32917    1.000
    N2275    N        0.32145    0.57780    0.36110    1.000
    Si2276   Si       0.34217    0.55090    0.25049    1.000
    N2277    N        0.48927    0.57709    0.29688    1.000
    N2278    N        0.38046    0.54269    0.34055    1.000
    Si2279   Si       0.41762    0.55294    0.26953    1.000
    N2280    N        0.43918    0.59211    0.35339    1.000
    N2281    N        0.42405    0.59250    0.28366    1.000
    N2282    N        0.24565    0.56857    0.37724    1.000
    Si2283   Si       0.25536    0.57277    0.42326    1.000
    N2284    N        0.26744    0.57498    0.47158    1.000
    Si2285   Si       0.34867    0.55200    0.45045    1.000
    N2286    N        0.33054    0.59013    0.44009    1.000
    N2287    N        0.41803    0.53834    0.40378    1.000
    Si2288   Si       0.38154    0.54984    0.38485    1.000
    N2289    N        0.45628    0.54163    0.46299    1.000
    N2290    N        0.38893    0.55862    0.46443    1.000
    Si2291   Si       0.46764    0.58615    0.38709    1.000
    Si2292   Si       0.42451    0.56209    0.44096    1.000
    N2293    N        0.32863    0.57084    0.56193    1.000
    N2294    N        0.25999    0.55296    0.53812    1.000
    Si2295   Si       0.26716    0.58864    0.51385    1.000
    Si2296   Si       0.35299    0.56966    0.59629    1.000
    Si2297   Si       0.29567    0.54157    0.56250    1.000
    N2298    N        0.28701    0.53909    0.60667    1.000
    Si2299   Si       0.46766    0.55189    0.50394    1.000
    N2300    N        0.46145    0.56324    0.58416    1.000
    N2301    N        0.39484    0.57102    0.58798    1.000
    N2302    N        0.43097    0.56253    0.52460    1.000
    Si2303   Si       0.42853    0.58023    0.56515    1.000
    Si2304   Si       0.39181    0.55867    0.50819    1.000
    Si2305   Si       0.48613    0.58419    0.61405    1.000
    Si2306   Si       0.24958    0.54308    0.63031    1.000
    Si2307   Si       0.32811    0.56952    0.69671    1.000
    N2308    N        0.26293    0.56495    0.71509    1.000
    N2309    N        0.25428    0.58425    0.64530    1.000
    N2310    N        0.33036    0.56330    0.73953    1.000
    N2311    N        0.31333    0.53663    0.67658    1.000
    N2312    N        0.36617    0.58438    0.67999    1.000
    Si2313   Si       0.26310    0.59959    0.68660    1.000
    N2314    N        0.47228    0.57803    0.65424    1.000
    N2315    N        0.41723    0.54411    0.65344    1.000
    Si2316   Si       0.40807    0.57309    0.68414    1.000
    N2317    N        0.41352    0.55490    0.72432    1.000
    N2318    N        0.49169    0.59436    0.72087    1.000
    Si2319   Si       0.31703    0.57153    0.78078    1.000
    N2320    N        0.27583    0.58634    0.78073    1.000
    N2321    N        0.35288    0.56428    0.84671    1.000
    Si2322   Si       0.24804    0.56274    0.75668    1.000
    Si2323   Si       0.48907    0.59018    0.76293    1.000
    N2324    N        0.39211    0.55959    0.78964    1.000
    Si2325   Si       0.41062    0.58356    0.75718    1.000
    Si2326   Si       0.37489    0.58863    0.81987    1.000
    N2327    N        0.47142    0.59125    0.83945    1.000
    N2328    N        0.27401    0.58484    0.91320    1.000
    Si2329   Si       0.25346    0.55828    0.88500    1.000
    Si2330   Si       0.30273    0.58218    0.94543    1.000
    N2331    N        0.29745    0.58377    0.99090    1.000
    N2332    N        0.31621    0.54223    0.94361    1.000
    N2333    N        0.45951    0.57331    0.90600    1.000
    N2334    N        0.39327    0.58734    0.89638    1.000
    N2335    N        0.42568    0.58460    0.96568    1.000
    Si2336   Si       0.42100    0.56990    0.92458    1.000
    Si2337   Si       0.38277    0.54669    0.87777    1.000
    N2338    N        0.32134    0.61581    0.05067    1.000
    Si2339   Si       0.33102    0.60405    0.00955    1.000
    N2340    N        0.35594    0.64084    0.11056    1.000
    Si2341   Si       0.33218    0.65058    0.07386    1.000
    N2342    N        0.24927    0.63372    0.07563    1.000
    N2343    N        0.41877    0.62935    0.06515    1.000
    N2344    N        0.47748    0.63573    0.01678    1.000
    Si2345   Si       0.43836    0.65021    0.03465    1.000
    Si2346   Si       0.39185    0.65257    0.08925    1.000
    N2347    N        0.41800    0.64163    0.99774    1.000
    Si2348   Si       0.34747    0.64803    0.15889    1.000
    N2349    N        0.28330    0.61679    0.17746    1.000
    N2350    N        0.35723    0.60333    0.16220    1.000
    N2351    N        0.36194    0.65232    0.19984    1.000
    Si2352   Si       0.36312    0.60747    0.20402    1.000
    N2353    N        0.43901    0.65214    0.24404    1.000
    Si2354   Si       0.47441    0.63862    0.22231    1.000
    N2355    N        0.46861    0.60076    0.20003    1.000
    N2356    N        0.40019    0.59851    0.22119    1.000
    N2357    N        0.30973    0.63577    0.30857    1.000
    Si2358   Si       0.35154    0.64662    0.30508    1.000
    N2359    N        0.28842    0.62339    0.25073    1.000
    Si2360   Si       0.29803    0.59934    0.28630    1.000
    N2361    N        0.37038    0.61372    0.32901    1.000
    N2362    N        0.46874    0.64081    0.31634    1.000
    Si2363   Si       0.40192    0.61515    0.35704    1.000
    N2364    N        0.37484    0.64569    0.26750    1.000
    Si2365   Si       0.41093    0.62325    0.25445    1.000
    Si2366   Si       0.45444    0.59893    0.31326    1.000
    Si2367   Si       0.29886    0.60788    0.46490    1.000
    Si2368   Si       0.29367    0.65201    0.42111    1.000
    N2369    N        0.27222    0.61550    0.42360    1.000
    Si2370   Si       0.33515    0.59875    0.39727    1.000
    N2371    N        0.32481    0.64257    0.39301    1.000
    N2372    N        0.31238    0.65199    0.46069    1.000
    Si2373   Si       0.44642    0.62896    0.44571    1.000
    N2374    N        0.37970    0.59329    0.38967    1.000
    N2375    N        0.44165    0.59608    0.42152    1.000
    N2376    N        0.43759    0.61895    0.48721    1.000
    Si2377   Si       0.47953    0.62272    0.49622    1.000
    N2378    N        0.28491    0.62956    0.58720    1.000
    N2379    N        0.34431    0.64345    0.56006    1.000
    Si2380   Si       0.32483    0.63982    0.59858    1.000
    Si2381   Si       0.33779    0.60625    0.53580    1.000
    Si2382   Si       0.25022    0.63690    0.56005    1.000
    N2383    N        0.30657    0.60512    0.50766    1.000
    Si2384   Si       0.25344    0.61558    0.61455    1.000
    N2385    N        0.34111    0.60428    0.61911    1.000
    N2386    N        0.24698    0.62607    0.51924    1.000
    N2387    N        0.42998    0.62278    0.55558    1.000
    Si2388   Si       0.40815    0.62683    0.51763    1.000
    Si2389   Si       0.46573    0.64657    0.56590    1.000
    N2390    N        0.48022    0.62680    0.60261    1.000
    N2391    N        0.48448    0.65275    0.52713    1.000
    N2392    N        0.37708    0.59747    0.51865    1.000
    N2393    N        0.35767    0.65156    0.68620    1.000
    N2394    N        0.30575    0.61067    0.68509    1.000
    Si2395   Si       0.34315    0.61729    0.65903    1.000
    Si2396   Si       0.31572    0.65048    0.70459    1.000
    N2397    N        0.31019    0.64626    0.74759    1.000
    N2398    N        0.42997    0.61229    0.68858    1.000
    Si2399   Si       0.49005    0.65793    0.63221    1.000
    N2400    N        0.39108    0.62201    0.74738    1.000
    Si2401   Si       0.39817    0.63775    0.70653    1.000
    Si2402   Si       0.47312    0.60833    0.68523    1.000
    N2403    N        0.28613    0.64238    0.81279    1.000
    Si2404   Si       0.32208    0.64213    0.78922    1.000
    Si2405   Si       0.25059    0.62353    0.79267    1.000
    N2406    N        0.34122    0.60356    0.79684    1.000
    N2407    N        0.24173    0.64774    0.75860    1.000
    N2408    N        0.46091    0.65685    0.80977    1.000
    N2409    N        0.40091    0.62382    0.82239    1.000
    Si2410   Si       0.44516    0.61526    0.81290    1.000
    Si2411   Si       0.38809    0.64599    0.78434    1.000
    Si2412   Si       0.40580    0.65227    0.85759    1.000
    N2413    N        0.44877    0.59730    0.77295    1.000
    N2414    N        0.25743    0.64498    0.88197    1.000
    Si2415   Si       0.25815    0.62476    0.92086    1.000
    N2416    N        0.33196    0.61130    0.92887    1.000
    N2417    N        0.28111    0.64655    0.95183    1.000
    N2418    N        0.34592    0.64334    0.98981    1.000
    Si2419   Si       0.32559    0.64911    0.94955    1.000
    N2420    N        0.45544    0.65317    0.95035    1.000
    N2421    N        0.36787    0.65322    0.87932    1.000
    Si2422   Si       0.45641    0.61926    0.97762    1.000
    Si2423   Si       0.46902    0.60785    0.88053    1.000
    Si2424   Si       0.38550    0.61747    0.97795    1.000
    Si2425   Si       0.37071    0.62174    0.90824    1.000
    N2426    N        0.38957    0.64060    0.94158    1.000
    N2427    N        0.43948    0.63897    0.88438    1.000
    N2428    N        0.30137    0.67881    0.09157    1.000
    N2429    N        0.27022    0.66991    0.01979    1.000
    Si2430   Si       0.25897    0.67168    0.09579    1.000
    Si2431   Si       0.29283    0.70803    0.02040    1.000
    N2432    N        0.33573    0.70997    0.02176    1.000
    Si2433   Si       0.36395    0.67779    0.01118    1.000
    N2434    N        0.36790    0.66659    0.05327    1.000
    N2435    N        0.45031    0.68974    0.05274    1.000
    N2436    N        0.42021    0.67337    0.11544    1.000
    Si2437   Si       0.45036    0.70321    0.09449    1.000
    Si2438   Si       0.31881    0.69899    0.12505    1.000
    N2439    N        0.31115    0.67104    0.15671    1.000
    N2440    N        0.25772    0.67606    0.21059    1.000
    N2441    N        0.24674    0.66615    0.13764    1.000
    Si2442   Si       0.36216    0.67545    0.23713    1.000
    N2443    N        0.36056    0.70855    0.13519    1.000
    Si2444   Si       0.27217    0.65889    0.17318    1.000
    Si2445   Si       0.28315    0.66660    0.24415    1.000
    N2446    N        0.48213    0.67440    0.19728    1.000
    Si2447   Si       0.40535    0.70585    0.13879    1.000
    N2448    N        0.39106    0.70619    0.24082    1.000
    N2449    N        0.41627    0.70828    0.18126    1.000
    Si2450   Si       0.45724    0.70934    0.19835    1.000
    N2451    N        0.26721    0.68821    0.27970    1.000
    N2452    N        0.34962    0.68425    0.32863    1.000
    N2453    N        0.28234    0.67795    0.35217    1.000
    Si2454   Si       0.32400    0.67509    0.36461    1.000
    Si2455   Si       0.27445    0.66083    0.31339    1.000
    N2456    N        0.32107    0.68804    0.24639    1.000
    Si2457   Si       0.44594    0.67368    0.33681    1.000
    N2458    N        0.42755    0.69608    0.30239    1.000
    Si2459   Si       0.42710    0.69171    0.25905    1.000
    N2460    N        0.41092    0.65761    0.35990    1.000
    N2461    N        0.46577    0.68490    0.37349    1.000
    N2462    N        0.26128    0.68322    0.42087    1.000
    Si2463   Si       0.33117    0.68967    0.47244    1.000
    Si2464   Si       0.25265    0.68992    0.37815    1.000
    N2465    N        0.36695    0.69875    0.45272    1.000
    Si2466   Si       0.40376    0.68236    0.46817    1.000
    N2467    N        0.42262    0.66238    0.43386    1.000
    Si2468   Si       0.42647    0.68147    0.39391    1.000
    N2469    N        0.33335    0.69906    0.51624    1.000
    Si2470   Si       0.36235    0.67771    0.54130    1.000
    N2471    N        0.24168    0.67816    0.56921    1.000
    N2472    N        0.45207    0.68479    0.58112    1.000
    Si2473   Si       0.41218    0.69984    0.59609    1.000
    N2474    N        0.39084    0.66572    0.50907    1.000
    N2475    N        0.37566    0.70358    0.57213    1.000
    Si2476   Si       0.47973    0.71274    0.60472    1.000
    N2477    N        0.33190    0.66761    0.63001    1.000
    N2478    N        0.28467    0.68120    0.70356    1.000
    Si2479   Si       0.26040    0.70904    0.68225    1.000
    Si2480   Si       0.35963    0.68702    0.65584    1.000
    N2481    N        0.26824    0.71027    0.63894    1.000
    Si2482   Si       0.27427    0.67237    0.74457    1.000
    N2483    N        0.46440    0.69094    0.64418    1.000
    Si2484   Si       0.42841    0.69747    0.66592    1.000
    N2485    N        0.41572    0.67748    0.70410    1.000
    N2486    N        0.39761    0.68903    0.63513    1.000
    Si2487   Si       0.41486    0.70327    0.73793    1.000
    N2488    N        0.30711    0.69246    0.86150    1.000
    N2489    N        0.35387    0.67163    0.79547    1.000
    N2490    N        0.27324    0.70815    0.76975    1.000
    Si2491   Si       0.27811    0.66501    0.84784    1.000
    N2492    N        0.24370    0.68663    0.83572    1.000
    N2493    N        0.41153    0.68724    0.77888    1.000
    N2494    N        0.41486    0.69523    0.84863    1.000
    Si2495   Si       0.43996    0.69431    0.81218    1.000
    N2496    N        0.33186    0.68707    0.92932    1.000
    Si2497   Si       0.25994    0.67528    0.97524    1.000
    Si2498   Si       0.34365    0.68881    0.88659    1.000
    N2499    N        0.28534    0.71161    0.97589    1.000
    Si2500   Si       0.45471    0.66870    0.91076    1.000
    N2501    N        0.39776    0.69960    0.99035    1.000
    N2502    N        0.42073    0.69703    0.92238    1.000
    N2503    N        0.48928    0.68767    0.89503    1.000
    Si2504   Si       0.41547    0.67260    0.96096    1.000
    N2505    N        0.27599    0.73961    0.04618    1.000
    Si2506   Si       0.34828    0.75154    0.01034    1.000
    N2507    N        0.47473    0.75389    0.06397    1.000
    N2508    N        0.38854    0.76322    0.02022    1.000
    Si2509   Si       0.47116    0.72240    0.03256    1.000
    N2510    N        0.42603    0.73363    0.11339    1.000
    Si2511   Si       0.34703    0.74769    0.14768    1.000
    N2512    N        0.35217    0.74786    0.19112    1.000
    N2513    N        0.30738    0.74274    0.13037    1.000
    N2514    N        0.30162    0.75282    0.24345    1.000
    Si2515   Si       0.33370    0.77155    0.22162    1.000
    N2516    N        0.45885    0.71765    0.24244    1.000
    N2517    N        0.47441    0.74661    0.17835    1.000
    Si2518   Si       0.39283    0.73580    0.20553    1.000
    N2519    N        0.30940    0.73671    0.30850    1.000
    Si2520   Si       0.34310    0.72842    0.33551    1.000
    Si2521   Si       0.30138    0.71661    0.27080    1.000
    N2522    N        0.37898    0.74631    0.32026    1.000
    N2523    N        0.43942    0.74433    0.34710    1.000
    Si2524   Si       0.41956    0.74087    0.30817    1.000
    Si2525   Si       0.47956    0.75874    0.35227    1.000
    N2526    N        0.42925    0.77877    0.28856    1.000
    Si2527   Si       0.27020    0.72648    0.43413    1.000
    N2528    N        0.28616    0.75898    0.40745    1.000
    N2529    N        0.35518    0.76370    0.42266    1.000
    Si2530   Si       0.25254    0.76829    0.37919    1.000
    N2531    N        0.30161    0.72145    0.46355    1.000
    N2532    N        0.33830    0.71324    0.38067    1.000
    Si2533   Si       0.36478    0.71986    0.41408    1.000
    N2534    N        0.43203    0.71404    0.47649    1.000
    N2535    N        0.40611    0.71944    0.39778    1.000
    Si2536   Si       0.42677    0.75761    0.48795    1.000
    N2537    N        0.46359    0.76457    0.46313    1.000
    Si2538   Si       0.42178    0.75853    0.38539    1.000
    Si2539   Si       0.47375    0.72270    0.46811    1.000
    N2540    N        0.31020    0.74728    0.58355    1.000
    N2541    N        0.26923    0.72993    0.52811    1.000
    Si2542   Si       0.30547    0.73319    0.50597    1.000
    Si2543   Si       0.35565    0.74231    0.58181    1.000
    Si2544   Si       0.27719    0.76000    0.55769    1.000
    N2545    N        0.24764    0.75147    0.59044    1.000
    N2546    N        0.32239    0.77197    0.51699    1.000
    Si2547   Si       0.28216    0.74675    0.61862    1.000
    N2548    N        0.43009    0.74454    0.59801    1.000
    N2549    N        0.44239    0.75709    0.52851    1.000
    Si2550   Si       0.48552    0.74976    0.53223    1.000
    N2551    N        0.37791    0.77151    0.55849    1.000
    N2552    N        0.31469    0.75114    0.73356    1.000
    Si2553   Si       0.35315    0.74601    0.71499    1.000
    N2554    N        0.25273    0.74827    0.69967    1.000
    Si2555   Si       0.34162    0.76328    0.65452    1.000
    N2556    N        0.34562    0.72353    0.67744    1.000
    Si2557   Si       0.27871    0.77234    0.72036    1.000
    N2558    N        0.42451    0.73953    0.67153    1.000
    N2559    N        0.36969    0.75407    0.62266    1.000
    Si2560   Si       0.44998    0.75863    0.70274    1.000
    N2561    N        0.45145    0.72975    0.73526    1.000
    Si2562   Si       0.41088    0.75888    0.63371    1.000
    N2563    N        0.37776    0.72710    0.74320    1.000
    N2564    N        0.33442    0.73300    0.80091    1.000
    N2565    N        0.27558    0.74310    0.82204    1.000
    Si2566   Si       0.29883    0.74323    0.77692    1.000
    Si2567   Si       0.31762    0.73276    0.84233    1.000
    N2568    N        0.35422    0.72755    0.86783    1.000
    Si2569   Si       0.24629    0.71598    0.80416    1.000
    N2570    N        0.39562    0.74616    0.81247    1.000
    Si2571   Si       0.39505    0.73476    0.85377    1.000
    N2572    N        0.46723    0.72659    0.80442    1.000
    N2573    N        0.47546    0.75615    0.86404    1.000
    Si2574   Si       0.48285    0.72429    0.76409    1.000
    Si2575   Si       0.37317    0.71564    0.78738    1.000
    Si2576   Si       0.31514    0.72391    0.94639    1.000
    N2577    N        0.34146    0.75177    0.96680    1.000
    N2578    N        0.29560    0.74909    0.91766    1.000
    Si2579   Si       0.25248    0.74280    0.91331    1.000
    N2580    N        0.24009    0.76245    0.87716    1.000
    N2581    N        0.46350    0.75535    0.92433    1.000
    Si2582   Si       0.41150    0.74082    0.98865    1.000
    N2583    N        0.40252    0.76350    0.95257    1.000
    N2584    N        0.45443    0.74117    0.99564    1.000
    N2585    N        0.41366    0.76139    0.88279    1.000
    Si2586   Si       0.42269    0.74051    0.91987    1.000
    Si2587   Si       0.48188    0.75949    0.96530    1.000
    N2588    N        0.29388    0.79979    0.08806    1.000
    N2589    N        0.25253    0.80521    0.03445    1.000
    N2590    N        0.32352    0.78377    0.02518    1.000
    Si2591   Si       0.34317    0.82324    0.01487    1.000
    Si2592   Si       0.28787    0.78329    0.04764    1.000
    Si2593   Si       0.26434    0.83667    0.00262    1.000
    Si2594   Si       0.40776    0.79880    0.03699    1.000
    N2595    N        0.44708    0.80534    0.02152    1.000
    Si2596   Si       0.46659    0.79811    0.05979    1.000
    N2597    N        0.42181    0.79553    0.07771    1.000
    N2598    N        0.37589    0.82879    0.04358    1.000
    Si2599   Si       0.41472    0.77423    0.11452    1.000
    Si2600   Si       0.27853    0.77393    0.12283    1.000
    N2601    N        0.30974    0.80826    0.21360    1.000
    N2602    N        0.26775    0.80021    0.15988    1.000
    Si2603   Si       0.29919    0.82791    0.17659    1.000
    N2604    N        0.32436    0.83133    0.14023    1.000
    Si2605   Si       0.28178    0.79255    0.24492    1.000
    N2606    N        0.24189    0.79242    0.22301    1.000
    N2607    N        0.41597    0.77167    0.19959    1.000
    Si2608   Si       0.36718    0.81908    0.14418    1.000
    Si2609   Si       0.39398    0.80744    0.21392    1.000
    N2610    N        0.36856    0.78533    0.24309    1.000
    N2611    N        0.37429    0.77853    0.13210    1.000
    N2612    N        0.43974    0.79894    0.13795    1.000
    Si2613   Si       0.45129    0.78405    0.17645    1.000
    N2614    N        0.47515    0.81693    0.19397    1.000
    N2615    N        0.29637    0.80499    0.28501    1.000
    Si2616   Si       0.30278    0.77882    0.31901    1.000
    N2617    N        0.26555    0.77958    0.33935    1.000
    N2618    N        0.33142    0.77504    0.35068    1.000
    N2619    N        0.48378    0.79748    0.33167    1.000
    Si2620   Si       0.37265    0.78595    0.33740    1.000
    N2621    N        0.37344    0.81527    0.30683    1.000
    Si2622   Si       0.46783    0.79692    0.29057    1.000
    Si2623   Si       0.39443    0.79927    0.27404    1.000
    N2624    N        0.41272    0.83039    0.24643    1.000
    N2625    N        0.39689    0.79102    0.37163    1.000
    N2626    N        0.25567    0.80096    0.48130    1.000
    N2627    N        0.32786    0.80947    0.46546    1.000
    N2628    N        0.32359    0.81743    0.39903    1.000
    Si2629   Si       0.36609    0.79448    0.45083    1.000
    Si2630   Si       0.32357    0.77327    0.39304    1.000
    Si2631   Si       0.48276    0.78802    0.43097    1.000
    N2632    N        0.47285    0.82865    0.44022    1.000
    N2633    N        0.38696    0.77826    0.48687    1.000
    N2634    N        0.38499    0.82773    0.43016    1.000
    N2635    N        0.46259    0.77238    0.39616    1.000
    N2636    N        0.27160    0.80112    0.53994    1.000
    Si2637   Si       0.36297    0.78980    0.52120    1.000
    Si2638   Si       0.29785    0.80499    0.49863    1.000
    N2639    N        0.37089    0.83265    0.52723    1.000
    Si2640   Si       0.47282    0.82159    0.55252    1.000
    N2641    N        0.43043    0.81519    0.56649    1.000
    Si2642   Si       0.44248    0.82444    0.60961    1.000
    N2643    N        0.48394    0.82233    0.59748    1.000
    Si2644   Si       0.42092    0.77164    0.56365    1.000
    Si2645   Si       0.34653    0.82571    0.69667    1.000
    N2646    N        0.35667    0.78418    0.69006    1.000
    Si2647   Si       0.28772    0.81871    0.65642    1.000
    N2648    N        0.28132    0.80965    0.69811    1.000
    N2649    N        0.30139    0.77601    0.64379    1.000
    Si2650   Si       0.41962    0.81918    0.67885    1.000
    N2651    N        0.48240    0.81870    0.74301    1.000
    N2652    N        0.42549    0.79559    0.71363    1.000
    N2653    N        0.42662    0.79933    0.64074    1.000
    Si2654   Si       0.32980    0.81380    0.83815    1.000
    Si2655   Si       0.26935    0.81435    0.78752    1.000
    N2656    N        0.31166    0.81703    0.79910    1.000
    N2657    N        0.25000    0.81006    0.82698    1.000
    N2658    N        0.27056    0.77895    0.76260    1.000
    N2659    N        0.30892    0.78030    0.85777    1.000
    Si2660   Si       0.26651    0.77654    0.84830    1.000
    N2661    N        0.37424    0.80352    0.84130    1.000
    N2662    N        0.37663    0.81188    0.77153    1.000
    N2663    N        0.43479    0.80156    0.79016    1.000
    Si2664   Si       0.39494    0.78924    0.80468    1.000
    Si2665   Si       0.47641    0.81971    0.78633    1.000
    Si2666   Si       0.41421    0.81835    0.75031    1.000
    Si2667   Si       0.31726    0.78324    0.90022    1.000
    N2668    N        0.35798    0.79577    0.90925    1.000
    N2669    N        0.29296    0.82022    0.90913    1.000
    N2670    N        0.24956    0.81748    0.96698    1.000
    Si2671   Si       0.25391    0.82705    0.92501    1.000
    N2672    N        0.35961    0.82029    0.97474    1.000
    Si2673   Si       0.36599    0.78588    0.95108    1.000
    Si2674   Si       0.39085    0.80006    0.88070    1.000
    N2675    N        0.42595    0.82271    0.89442    1.000
    Si2676   Si       0.45377    0.78536    0.89086    1.000
    N2677    N        0.49022    0.81166    0.89495    1.000
    N2678    N        0.33267    0.86610    0.08235    1.000
    N2679    N        0.25643    0.85621    0.09736    1.000
    Si2680   Si       0.30123    0.84096    0.10338    1.000
    N2681    N        0.30559    0.84785    0.01163    1.000
    Si2682   Si       0.31652    0.89087    0.00355    1.000
    N2683    N        0.23911    0.86518    0.02422    1.000
    N2684    N        0.46091    0.84434    0.07827    1.000
    Si2685   Si       0.37507    0.85440    0.08037    1.000
    N2686    N        0.44215    0.87199    0.00770    1.000
    Si2687   Si       0.44045    0.87550    0.05261    1.000
    N2688    N        0.40410    0.88685    0.07015    1.000
    Si2689   Si       0.43412    0.83918    0.11782    1.000
    N2690    N        0.28588    0.87029    0.17830    1.000
    Si2691   Si       0.24429    0.88055    0.17827    1.000
    N2692    N        0.35062    0.89561    0.16772    1.000
    Si2693   Si       0.38631    0.87184    0.16495    1.000
    N2694    N        0.39163    0.84897    0.12209    1.000
    Si2695   Si       0.48449    0.85221    0.16744    1.000
    N2696    N        0.45420    0.87050    0.13999    1.000
    N2697    N        0.37988    0.83264    0.18239    1.000
    N2698    N        0.26398    0.86623    0.27560    1.000
    N2699    N        0.33948    0.87212    0.28938    1.000
    Si2700   Si       0.29920    0.84838    0.29444    1.000
    N2701    N        0.29609    0.85200    0.33892    1.000
    Si2702   Si       0.28289    0.88937    0.35808    1.000
    Si2703   Si       0.32627    0.84940    0.37160    1.000
    N2704    N        0.36547    0.85258    0.35725    1.000
    Si2705   Si       0.37087    0.85737    0.31544    1.000
    Si2706   Si       0.43210    0.86130    0.26845    1.000
    N2707    N        0.40900    0.87510    0.30212    1.000
    N2708    N        0.46875    0.84094    0.28152    1.000
    N2709    N        0.33467    0.87247    0.45416    1.000
    N2710    N        0.26958    0.84108    0.43352    1.000
    N2711    N        0.31084    0.88303    0.39274    1.000
    N2712    N        0.24408    0.88800    0.38136    1.000
    Si2713   Si       0.24544    0.87475    0.42439    1.000
    Si2714   Si       0.31103    0.83947    0.43659    1.000
    N2715    N        0.43539    0.84531    0.38488    1.000
    Si2716   Si       0.37969    0.86739    0.44383    1.000
    Si2717   Si       0.46981    0.85547    0.40720    1.000
    N2718    N        0.38981    0.87905    0.48454    1.000
    Si2719   Si       0.39416    0.83253    0.38697    1.000
    N2720    N        0.25994    0.86318    0.55899    1.000
    N2721    N        0.30997    0.84591    0.51600    1.000
    N2722    N        0.30772    0.84641    0.59473    1.000
    Si2723   Si       0.27278    0.87617    0.59807    1.000
    Si2724   Si       0.34741    0.86635    0.50205    1.000
    Si2725   Si       0.29293    0.83729    0.55466    1.000
    N2726    N        0.41093    0.88205    0.55263    1.000
    Si2727   Si       0.39550    0.84174    0.56190    1.000
    N2728    N        0.47953    0.85001    0.51894    1.000
    N2729    N        0.37418    0.83791    0.59848    1.000
    N2730    N        0.43465    0.86504    0.61824    1.000
    Si2731   Si       0.48370    0.89375    0.53252    1.000
    Si2732   Si       0.34218    0.85655    0.61992    1.000
    Si2733   Si       0.28467    0.84209    0.72614    1.000
    N2734    N        0.27644    0.87870    0.70523    1.000
    N2735    N        0.32732    0.84180    0.73278    1.000
    N2736    N        0.32778    0.83924    0.65869    1.000
    N2737    N        0.25529    0.83621    0.63291    1.000
    Si2738   Si       0.46732    0.85288    0.72066    1.000
    N2739    N        0.49110    0.88751    0.71765    1.000
    N2740    N        0.45228    0.84522    0.68122    1.000
    Si2741   Si       0.45096    0.88081    0.65617    1.000
    Si2742   Si       0.40126    0.88207    0.71002    1.000
    N2743    N        0.42809    0.86203    0.74306    1.000
    N2744    N        0.38586    0.84432    0.69475    1.000
    N2745    N        0.32462    0.85385    0.85510    1.000
    N2746    N        0.35233    0.87382    0.79463    1.000
    N2747    N        0.25868    0.84464    0.76032    1.000
    Si2748   Si       0.34187    0.83768    0.77351    1.000
    Si2749   Si       0.32850    0.89041    0.82810    1.000
    N2750    N        0.48087    0.86248    0.79207    1.000
    Si2751   Si       0.44468    0.88493    0.78148    1.000
    N2752    N        0.42345    0.89326    0.81895    1.000
    N2753    N        0.33836    0.86966    0.92522    1.000
    Si2754   Si       0.31141    0.85747    0.89612    1.000
    N2755    N        0.35554    0.89029    0.98742    1.000
    N2756    N        0.46354    0.84711    0.94980    1.000
    N2757    N        0.40689    0.87598    0.94179    1.000
    Si2758   Si       0.36723    0.86135    0.95587    1.000
    Si2759   Si       0.43749    0.85858    0.91513    1.000
    Si2760   Si       0.46362    0.83626    0.99374    1.000
    Si2761   Si       0.32748    0.91015    0.07488    1.000
    N2762    N        0.31321    0.92215    0.03485    1.000
    N2763    N        0.29436    0.92527    0.10010    1.000
    N2764    N        0.36071    0.93889    0.07875    1.000
    Si2765   Si       0.25793    0.94420    0.08623    1.000
    N2766    N        0.47145    0.90685    0.05610    1.000
    Si2767   Si       0.40370    0.93070    0.07736    1.000
    Si2768   Si       0.46819    0.94844    0.04727    1.000
    N2769    N        0.41837    0.93692    0.12008    1.000
    Si2770   Si       0.31425    0.90446    0.18814    1.000
    N2771    N        0.31137    0.90360    0.23184    1.000
    N2772    N        0.30409    0.94469    0.17699    1.000
    Si2773   Si       0.26965    0.89639    0.24651    1.000
    N2774    N        0.41418    0.90054    0.18034    1.000
    Si2775   Si       0.41297    0.91947    0.21935    1.000
    Si2776   Si       0.44009    0.91171    0.14767    1.000
    N2777    N        0.47444    0.93547    0.15674    1.000
    N2778    N        0.49004    0.94123    0.22434    1.000
    N2779    N        0.44164    0.89588    0.24366    1.000
    N2780    N        0.37897    0.92112    0.24595    1.000
    N2781    N        0.29898    0.92366    0.33911    1.000
    N2782    N        0.26436    0.93140    0.27196    1.000
    Si2783   Si       0.34089    0.90579    0.26207    1.000
    Si2784   Si       0.33722    0.94239    0.32894    1.000
    N2785    N        0.33339    0.94564    0.28377    1.000
    N2786    N        0.45499    0.92956    0.30149    1.000
    N2787    N        0.38134    0.93465    0.32943    1.000
    N2788    N        0.43782    0.91430    0.36078    1.000
    Si2789   Si       0.47318    0.92110    0.26099    1.000
    Si2790   Si       0.41837    0.91371    0.32213    1.000
    Si2791   Si       0.47684    0.93432    0.34029    1.000
    Si2792   Si       0.25950    0.93241    0.47496    1.000
    Si2793   Si       0.31051    0.90469    0.43203    1.000
    N2794    N        0.32520    0.94307    0.43013    1.000
    N2795    N        0.26853    0.90626    0.44314    1.000
    N2796    N        0.39337    0.89428    0.41441    1.000
    N2797    N        0.46760    0.89588    0.42345    1.000
    Si2798   Si       0.43042    0.91246    0.40347    1.000
    N2799    N        0.29910    0.90821    0.58144    1.000
    N2800    N        0.34046    0.90557    0.52242    1.000
    N2801    N        0.26912    0.90947    0.51090    1.000
    Si2802   Si       0.30153    0.91641    0.53884    1.000
    Si2803   Si       0.31815    0.92209    0.61852    1.000
    Si2804   Si       0.41123    0.90265    0.51470    1.000
    N2805    N        0.41203    0.92828    0.60653    1.000
    N2806    N        0.45527    0.91481    0.50801    1.000
    N2807    N        0.39539    0.94478    0.51227    1.000
    N2808    N        0.47488    0.89560    0.57421    1.000
    Si2809   Si       0.43316    0.89578    0.58792    1.000
    N2810    N        0.35265    0.89975    0.62961    1.000
    Si2811   Si       0.28927    0.91366    0.68610    1.000
    N2812    N        0.28617    0.90974    0.64394    1.000
    N2813    N        0.24723    0.93263    0.69083    1.000
    N2814    N        0.31362    0.94263    0.70597    1.000
    Si2815   Si       0.35680    0.94613    0.70866    1.000
    N2816    N        0.37326    0.91008    0.72674    1.000
    Si2817   Si       0.39059    0.91877    0.64468    1.000
    N2818    N        0.41926    0.90190    0.67452    1.000
    Si2819   Si       0.48434    0.92723    0.73440    1.000
    N2820    N        0.49023    0.89115    0.64847    1.000
    N2821    N        0.35060    0.92694    0.84151    1.000
    Si2822   Si       0.28135    0.92493    0.86125    1.000
    Si2823   Si       0.25580    0.91682    0.79774    1.000
    N2824    N        0.32688    0.93299    0.77282    1.000
    N2825    N        0.28821    0.90392    0.82279    1.000
    N2826    N        0.26282    0.91913    0.75614    1.000
    Si2827   Si       0.36137    0.90636    0.76848    1.000
    N2828    N        0.41849    0.93961    0.85973    1.000
    Si2829   Si       0.39232    0.92272    0.82989    1.000
    N2830    N        0.45502    0.92382    0.76781    1.000
    Si2831   Si       0.45030    0.90747    0.85310    1.000
    N2832    N        0.38801    0.93853    0.78795    1.000
    N2833    N        0.48569    0.91450    0.83034    1.000
    Si2834   Si       0.48494    0.94145    0.79826    1.000
    Si2835   Si       0.26229    0.93447    0.97532    1.000
    N2836    N        0.34768    0.93712    0.93442    1.000
    N2837    N        0.29318    0.90343    0.96940    1.000
    Si2838   Si       0.31655    0.90785    0.93334    1.000
    N2839    N        0.29484    0.90077    0.89502    1.000
    N2840    N        0.25384    0.94415    0.93301    1.000
    Si2841   Si       0.23961    0.91114    0.90876    1.000
    Si2842   Si       0.43474    0.89757    0.97172    1.000
    N2843    N        0.41002    0.93360    0.98378    1.000
    Si2844   Si       0.36814    0.92941    0.97447    1.000
    Si2845   Si       0.47645    0.92522    0.91295    1.000
    N2846    N        0.46838    0.91781    0.95404    1.000
    N2847    N        0.45587    0.89136    0.89180    1.000
    Si2848   Si       0.34828    0.97944    0.08603    1.000
    Si2849   Si       0.31570    0.96334    0.02043    1.000
    N2850    N        0.33005    0.99365    0.04836    1.000
    N2851    N        0.25369    0.98474    0.07028    1.000
    Si2852   Si       0.24605    0.00353    0.10879    1.000
    N2853    N        0.32099    0.98118    0.11977    1.000
    N2854    N        0.27980    0.96711    0.99727    1.000
    N2855    N        0.35152    0.96572    0.99559    1.000
    Si2856   Si       0.46439    0.00937    0.08244    1.000
    N2857    N        0.46858    0.96037    0.00516    1.000
    N2858    N        0.38747    0.99907    0.09602    1.000
    Si2859   Si       0.42621    0.96736    0.00632    1.000
    N2860    N        0.42427    0.95497    0.04906    1.000
    N2861    N        0.25194    0.96405    0.13031    1.000
    Si2862   Si       0.31420    0.97868    0.20618    1.000
    N2863    N        0.35449    0.97571    0.22170    1.000
    N2864    N        0.29069    0.98649    0.24020    1.000
    Si2865   Si       0.29626    0.95158    0.13563    1.000
    N2866    N        0.42321    0.96108    0.20999    1.000
    Si2867   Si       0.48139    0.97785    0.14659    1.000
    N2868    N        0.45121    0.99465    0.12131    1.000
    N2869    N        0.39199    0.00383    0.16123    1.000
    Si2870   Si       0.46326    0.97666    0.21807    1.000
    Si2871   Si       0.41010    0.98058    0.12734    1.000
    Si2872   Si       0.39020    0.99089    0.20318    1.000
    N2873    N        0.48660    0.99930    0.18554    1.000
    N2874    N        0.34139    0.98147    0.35142    1.000
    N2875    N        0.28010    0.98292    0.30848    1.000
    Si2876   Si       0.29305    0.96041    0.27313    1.000
    Si2877   Si       0.26910    0.95457    0.33876    1.000
    Si2878   Si       0.36765    0.96099    0.25989    1.000
    N2879    N        0.46264    0.99047    0.26004    1.000
    N2880    N        0.39217    0.98407    0.28948    1.000
    Si2881   Si       0.38313    0.98172    0.33196    1.000
    N2882    N        0.41167    0.99902    0.36092    1.000
    N2883    N        0.47789    0.97042    0.36585    1.000
    N2884    N        0.27148    0.97841    0.37705    1.000
    Si2885   Si       0.30978    0.99734    0.38138    1.000
    N2886    N        0.28005    0.97087    0.47447    1.000
    Si2887   Si       0.31708    0.97601    0.45360    1.000
    N2888    N        0.34232    0.97937    0.48865    1.000
    Si2889   Si       0.44146    0.98063    0.38737    1.000
    N2890    N        0.44085    0.98578    0.48632    1.000
    Si2891   Si       0.42325    0.98107    0.44673    1.000
    N2892    N        0.42519    0.95340    0.41544    1.000
    N2893    N        0.38995    0.00882    0.44948    1.000
    Si2894   Si       0.32685    0.97735    0.57470    1.000
    Si2895   Si       0.28153    0.98667    0.51432    1.000
    N2896    N        0.30735    0.96109    0.53926    1.000
    N2897    N        0.25245    0.99818    0.60578    1.000
    N2898    N        0.24269    0.97801    0.53146    1.000
    N2899    N        0.31830    0.96556    0.61757    1.000
    Si2900   Si       0.29395    0.00195    0.61993    1.000
    Si2901   Si       0.35401    0.94963    0.52228    1.000
    N2902    N        0.36666    0.96701    0.56279    1.000
    N2903    N        0.43451    0.98234    0.56101    1.000
    Si2904   Si       0.40353    0.96558    0.58636    1.000
    Si2905   Si       0.41313    0.98334    0.52153    1.000
    Si2906   Si       0.47384    0.00446    0.56061    1.000
    Si2907   Si       0.47160    0.95486    0.50043    1.000
    N2908    N        0.40707    0.99288    0.61988    1.000
    Si2909   Si       0.45449    0.99599    0.71422    1.000
    N2910    N        0.36232    0.98064    0.73811    1.000
    Si2911   Si       0.39077    0.99163    0.65891    1.000
    N2912    N        0.37612    0.95350    0.66932    1.000
    N2913    N        0.47933    0.96118    0.70796    1.000
    N2914    N        0.42371    0.00832    0.68316    1.000
    N2915    N        0.34129    0.99193    0.81020    1.000
    Si2916   Si       0.33393    0.96887    0.84579    1.000
    N2917    N        0.29244    0.96530    0.85707    1.000
    Si2918   Si       0.35499    0.96583    0.77811    1.000
    N2919    N        0.28117    0.98879    0.75565    1.000
    Si2920   Si       0.27102    0.00123    0.86728    1.000
    Si2921   Si       0.24263    0.98518    0.77800    1.000
    Si2922   Si       0.29432    0.94868    0.74679    1.000
    N2923    N        0.45702    0.97412    0.80487    1.000
    Si2924   Si       0.42690    0.95795    0.77613    1.000
    N2925    N        0.42633    0.98736    0.74588    1.000
    N2926    N        0.42631    0.00941    0.85676    1.000
    Si2927   Si       0.25616    0.00283    0.98795    1.000
    N2928    N        0.34993    0.98714    0.88229    1.000
    N2929    N        0.35653    0.00650    0.94300    1.000
    N2930    N        0.40846    0.97364    0.91875    1.000
    Si2931   Si       0.36710    0.97079    0.91783    1.000
    Si2932   Si       0.36790    0.00443    0.98498    1.000
    N2933    N        0.47105    0.96504    0.89859    1.000
    Si2934   Si       0.42973    0.97369    0.88345    1.000
    N2935    N        0.41024    0.00664    0.99609    1.000
    Si2936   Si       0.58744    0.03985    0.06105    1.000
    N2937    N        0.60628    0.03484    0.02049    1.000
    N2938    N        0.49769    0.03727    0.08908    1.000
    Si2939   Si       0.49607    0.06812    0.11996    1.000
    N2940    N        0.70226    0.01915    0.10290    1.000
    N2941    N        0.62081    0.05009    0.08744    1.000
    N2942    N        0.67354    0.05104    0.04846    1.000
    Si2943   Si       0.64948    0.03862    0.01437    1.000
    Si2944   Si       0.66546    0.04297    0.09019    1.000
    Si2945   Si       0.51400    0.03564    0.18345    1.000
    N2946    N        0.59349    0.05621    0.14868    1.000
    N2947    N        0.52461    0.05806    0.14894    1.000
    Si2948   Si       0.58923    0.01539    0.16743    1.000
    N2949    N        0.55433    0.01553    0.19302    1.000
    N2950    N        0.49522    0.06331    0.21204    1.000
    N2951    N        0.69685    0.01650    0.18674    1.000
    Si2952   Si       0.61783    0.04383    0.23032    1.000
    Si2953   Si       0.72185    0.04980    0.20289    1.000
    N2954    N        0.66037    0.05069    0.13710    1.000
    Si2955   Si       0.65783    0.01757    0.16572    1.000
    N2956    N        0.62535    0.02159    0.19220    1.000
    Si2957   Si       0.71148    0.05689    0.13077    1.000
    Si2958   Si       0.62400    0.07413    0.12493    1.000
    N2959    N        0.54742    0.03164    0.34193    1.000
    N2960    N        0.52240    0.01868    0.25609    1.000
    Si2961   Si       0.50962    0.05943    0.25295    1.000
    N2962    N        0.59165    0.01629    0.25296    1.000
    N2963    N        0.60939    0.03390    0.32078    1.000
    Si2964   Si       0.52760    0.06120    0.36919    1.000
    N2965    N        0.68727    0.03577    0.31476    1.000
    Si2966   Si       0.69212    0.04456    0.26949    1.000
    Si2967   Si       0.68858    0.05540    0.35334    1.000
    N2968    N        0.65078    0.03754    0.25823    1.000
    Si2969   Si       0.62133    0.01522    0.28497    1.000
    N2970    N        0.64710    0.06256    0.36737    1.000
    N2971    N        0.49637    0.01973    0.46286    1.000
    N2972    N        0.50389    0.02857    0.38729    1.000
    N2973    N        0.59972    0.01708    0.38792    1.000
    N2974    N        0.60089    0.00955    0.46037    1.000
    Si2975   Si       0.69628    0.02122    0.42025    1.000
    N2976    N        0.65450    0.02809    0.42644    1.000
    Si2977   Si       0.64230    0.02424    0.46507    1.000
    Si2978   Si       0.62514    0.05118    0.40188    1.000
    N2979    N        0.71212    0.02944    0.37896    1.000
    N2980    N        0.64810    0.06059    0.48517    1.000
    Si2981   Si       0.72311    0.04618    0.48681    1.000
    N2982    N        0.71818    0.05037    0.44526    1.000
    N2983    N        0.53528    0.03601    0.54125    1.000
    N2984    N        0.58828    0.03496    0.59346    1.000
    Si2985   Si       0.55209    0.05024    0.57984    1.000
    N2986    N        0.52774    0.06210    0.61172    1.000
    Si2987   Si       0.50501    0.06353    0.52509    1.000
    Si2988   Si       0.62181    0.03283    0.56748    1.000
    Si2989   Si       0.70041    0.03236    0.57776    1.000
    N2990    N        0.70028    0.02835    0.51953    1.000
    N2991    N        0.66204    0.01049    0.57180    1.000
    Si2992   Si       0.49641    0.01765    0.62798    1.000
    N2993    N        0.58611    0.03864    0.73396    1.000
    N2994    N        0.57021    0.03557    0.66710    1.000
    Si2995   Si       0.59477    0.02250    0.63400    1.000
    N2996    N        0.49826    0.04419    0.66433    1.000
    Si2997   Si       0.53665    0.06460    0.65899    1.000
    N2998    N        0.71391    0.04206    0.74199    1.000
    Si2999   Si       0.72082    0.06045    0.64343    1.000
    N3000    N        0.69814    0.03142    0.62131    1.000
    N3001    N        0.72991    0.03822    0.67895    1.000
    Si3002   Si       0.67836    0.03314    0.71997    1.000
    N3003    N        0.63245    0.04536    0.64193    1.000
    N3004    N        0.64898    0.06575    0.72670    1.000
    Si3005   Si       0.66424    0.01664    0.64623    1.000
    Si3006   Si       0.52698    0.02489    0.82670    1.000
    Si3007   Si       0.60476    0.03000    0.82470    1.000
    N3008    N        0.56754    0.01670    0.84074    1.000
    N3009    N        0.49499    0.00875    0.85367    1.000
    Si3010   Si       0.49435    0.04046    0.76806    1.000
    N3011    N        0.61180    0.05917    0.79326    1.000
    N3012    N        0.51952    0.00861    0.78726    1.000
    Si3013   Si       0.62405    0.04258    0.75498    1.000
    N3014    N        0.62911    0.04885    0.85654    1.000
    Si3015   Si       0.71502    0.04132    0.78449    1.000
    N3016    N        0.71125    0.04726    0.86148    1.000
    N3017    N        0.55728    0.06133    0.88918    1.000
    Si3018   Si       0.58439    0.03539    0.98271    1.000
    Si3019   Si       0.50666    0.03978    0.96690    1.000
    Si3020   Si       0.56933    0.02035    0.88560    1.000
    N3021    N        0.54152    0.02634    0.98633    1.000
    N3022    N        0.59551    0.06305    0.95240    1.000
    N3023    N        0.73020    0.06365    0.99169    1.000
    N3024    N        0.65852    0.04953    0.91080    1.000
    Si3025   Si       0.70108    0.05418    0.90264    1.000
    N3026    N        0.72316    0.02175    0.92608    1.000
    N3027    N        0.66036    0.06140    0.98010    1.000
    Si3028   Si       0.64196    0.01851    0.88528    1.000
    N3029    N        0.50614    0.10276    0.09413    1.000
    Si3030   Si       0.54925    0.10615    0.08129    1.000
    N3031    N        0.56256    0.07491    0.05723    1.000
    N3032    N        0.57293    0.10710    0.11691    1.000
    N3033    N        0.69881    0.11024    0.02671    1.000
    N3034    N        0.69511    0.08601    0.09698    1.000
    Si3035   Si       0.70636    0.08076    0.05646    1.000
    Si3036   Si       0.67791    0.12336    0.11136    1.000
    N3037    N        0.63837    0.11311    0.12331    1.000
    N3038    N        0.55772    0.10386    0.18593    1.000
    Si3039   Si       0.56580    0.10264    0.22870    1.000
    Si3040   Si       0.56106    0.08251    0.15005    1.000
    N3041    N        0.60494    0.08547    0.23682    1.000
    N3042    N        0.71703    0.07673    0.16960    1.000
    N3043    N        0.71044    0.07190    0.23978    1.000
    Si3044   Si       0.70098    0.11700    0.23821    1.000
    Si3045   Si       0.73135    0.11760    0.16574    1.000
    Si3046   Si       0.50856    0.11339    0.28475    1.000
    N3047    N        0.59742    0.10446    0.34214    1.000
    N3048    N        0.53646    0.09253    0.25699    1.000
    N3049    N        0.49936    0.09421    0.36123    1.000
    N3050    N        0.64623    0.09451    0.29968    1.000
    Si3051   Si       0.62848    0.11122    0.26291    1.000
    N3052    N        0.70128    0.09744    0.34459    1.000
    Si3053   Si       0.67867    0.12050    0.31651    1.000
    Si3054   Si       0.62470    0.07295    0.33058    1.000
    N3055    N        0.70729    0.12679    0.28092    1.000
    N3056    N        0.55322    0.07725    0.39921    1.000
    Si3057   Si       0.57683    0.10690    0.41901    1.000
    Si3058   Si       0.54666    0.10825    0.48863    1.000
    N3059    N        0.50940    0.08603    0.48825    1.000
    N3060    N        0.55259    0.12555    0.45075    1.000
    N3061    N        0.61255    0.08227    0.42978    1.000
    N3062    N        0.72972    0.12395    0.43236    1.000
    Si3063   Si       0.62059    0.09083    0.47040    1.000
    N3064    N        0.56876    0.09125    0.57302    1.000
    Si3065   Si       0.55525    0.11226    0.60947    1.000
    Si3066   Si       0.59776    0.09635    0.54157    1.000
    N3067    N        0.49636    0.09125    0.55843    1.000
    N3068    N        0.58596    0.09063    0.49859    1.000
    N3069    N        0.64265    0.11352    0.60290    1.000
    Si3070   Si       0.67611    0.10933    0.57429    1.000
    N3071    N        0.69420    0.07260    0.56656    1.000
    Si3072   Si       0.67465    0.06922    0.52229    1.000
    N3073    N        0.66893    0.11980    0.53138    1.000
    N3074    N        0.63016    0.06873    0.54976    1.000
    N3075    N        0.71076    0.08544    0.49765    1.000
    N3076    N        0.59020    0.10713    0.73085    1.000
    N3077    N        0.55161    0.10725    0.65297    1.000
    N3078    N        0.52834    0.07800    0.70238    1.000
    Si3079   Si       0.55859    0.07285    0.73467    1.000
    Si3080   Si       0.64536    0.08743    0.63976    1.000
    Si3081   Si       0.63393    0.10580    0.73162    1.000
    N3082    N        0.68864    0.09010    0.65093    1.000
    N3083    N        0.62265    0.11297    0.66547    1.000
    Si3084   Si       0.53403    0.09497    0.80145    1.000
    N3085    N        0.57174    0.11512    0.79227    1.000
    N3086    N        0.53137    0.06690    0.76873    1.000
    N3087    N        0.52325    0.06842    0.83332    1.000
    Si3088   Si       0.61365    0.10178    0.80261    1.000
    N3089    N        0.50331    0.12615    0.79886    1.000
    N3090    N        0.69579    0.07517    0.80219    1.000
    N3091    N        0.64609    0.11599    0.77392    1.000
    Si3092   Si       0.70665    0.09032    0.84413    1.000
    Si3093   Si       0.68860    0.11662    0.78710    1.000
    N3094    N        0.63346    0.11440    0.84075    1.000
    Si3095   Si       0.52769    0.08907    0.87203    1.000
    N3096    N        0.50746    0.08414    0.96214    1.000
    Si3097   Si       0.58141    0.08453    0.91697    1.000
    Si3098   Si       0.52807    0.11988    0.95018    1.000
    N3099    N        0.55887    0.12186    0.91995    1.000
    N3100    N        0.49100    0.09730    0.89885    1.000
    Si3101   Si       0.63787    0.06945    0.94479    1.000
    Si3102   Si       0.69388    0.08971    0.98945    1.000
    Si3103   Si       0.64180    0.08400    0.87541    1.000
    N3104    N        0.62155    0.10046    0.90929    1.000
    N3105    N        0.68307    0.10274    0.88080    1.000
    N3106    N        0.72178    0.08483    0.92913    1.000
    N3107    N        0.67496    0.12335    0.95993    1.000
    Si3108   Si       0.69646    0.12243    0.92074    1.000
    N3109    N        0.58047    0.16902    0.10606    1.000
    N3110    N        0.54451    0.14037    0.05332    1.000
    Si3111   Si       0.52125    0.14054    0.01579    1.000
    Si3112   Si       0.55786    0.17650    0.07011    1.000
    N3113    N        0.49924    0.17677    0.00153    1.000
    Si3114   Si       0.68519    0.15029    0.03786    1.000
    N3115    N        0.67938    0.15384    0.08007    1.000
    N3116    N        0.64816    0.16642    0.01718    1.000
    N3117    N        0.71038    0.18122    0.02161    1.000
    Si3118   Si       0.60355    0.13797    0.12682    1.000
    N3119    N        0.54009    0.17694    0.16595    1.000
    Si3120   Si       0.56503    0.14841    0.18554    1.000
    N3121    N        0.56832    0.14618    0.22931    1.000
    N3122    N        0.60348    0.15206    0.16856    1.000
    N3123    N        0.72501    0.13313    0.20784    1.000
    Si3124   Si       0.72835    0.17690    0.12893    1.000
    N3125    N        0.65884    0.13114    0.23840    1.000
    N3126    N        0.70687    0.14055    0.13786    1.000
    Si3127   Si       0.65568    0.17712    0.23647    1.000
    N3128    N        0.66699    0.18469    0.19474    1.000
    N3129    N        0.63893    0.18348    0.12543    1.000
    Si3130   Si       0.63220    0.18357    0.16884    1.000
    N3131    N        0.58285    0.17437    0.33883    1.000
    N3132    N        0.52348    0.14014    0.31698    1.000
    Si3133   Si       0.58558    0.17316    0.25819    1.000
    Si3134   Si       0.50940    0.13470    0.35694    1.000
    Si3135   Si       0.54429    0.17965    0.31996    1.000
    N3136    N        0.60825    0.14405    0.28199    1.000
    Si3137   Si       0.61027    0.14179    0.32387    1.000
    N3138    N        0.64974    0.14803    0.34106    1.000
    Si3139   Si       0.66003    0.17597    0.37282    1.000
    Si3140   Si       0.57637    0.17148    0.38127    1.000
    N3141    N        0.59839    0.14538    0.40727    1.000
    N3142    N        0.53897    0.15164    0.38469    1.000
    Si3143   Si       0.52557    0.15180    0.43075    1.000
    N3144    N        0.52144    0.18833    0.45295    1.000
    Si3145   Si       0.62967    0.15692    0.43557    1.000
    N3146    N        0.62962    0.13214    0.47201    1.000
    N3147    N        0.66709    0.15657    0.41210    1.000
    N3148    N        0.69775    0.15682    0.48462    1.000
    Si3149   Si       0.69967    0.15425    0.44155    1.000
    N3150    N        0.52364    0.14109    0.59956    1.000
    Si3151   Si       0.57310    0.16147    0.53008    1.000
    N3152    N        0.53953    0.13442    0.52306    1.000
    N3153    N        0.60825    0.13907    0.54447    1.000
    N3154    N        0.58409    0.14630    0.61713    1.000
    Si3155   Si       0.55122    0.17685    0.60964    1.000
    Si3156   Si       0.51237    0.13190    0.55536    1.000
    N3157    N        0.73908    0.13853    0.53957    1.000
    Si3158   Si       0.61830    0.14858    0.58882    1.000
    Si3159   Si       0.72523    0.16531    0.56866    1.000
    Si3160   Si       0.63868    0.14499    0.51289    1.000
    N3161    N        0.70232    0.13813    0.59306    1.000
    Si3162   Si       0.70961    0.12585    0.51060    1.000
    N3163    N        0.48946    0.14266    0.67670    1.000
    N3164    N        0.55616    0.15913    0.68701    1.000
    N3165    N        0.52796    0.13476    0.73768    1.000
    Si3166   Si       0.58671    0.13853    0.66032    1.000
    Si3167   Si       0.49117    0.14927    0.63061    1.000
    Si3168   Si       0.52838    0.12461    0.69198    1.000
    Si3169   Si       0.64675    0.14913    0.67618    1.000
    N3170    N        0.68069    0.16298    0.65531    1.000
    Si3171   Si       0.70353    0.13197    0.63602    1.000
    Si3172   Si       0.69138    0.15869    0.73733    1.000
    N3173    N        0.61434    0.17357    0.67571    1.000
    N3174    N        0.65923    0.13701    0.71619    1.000
    Si3175   Si       0.50776    0.15122    0.83302    1.000
    Si3176   Si       0.56739    0.13847    0.75257    1.000
    N3177    N        0.59055    0.17647    0.75275    1.000
    N3178    N        0.53916    0.13028    0.85654    1.000
    N3179    N        0.71574    0.12842    0.75624    1.000
    Si3180   Si       0.66480    0.14253    0.85960    1.000
    N3181    N        0.69733    0.13528    0.82729    1.000
    Si3182   Si       0.69054    0.17633    0.81315    1.000
    N3183    N        0.67756    0.18061    0.77204    1.000
    N3184    N        0.65854    0.18371    0.84237    1.000
    Si3185   Si       0.57835    0.16949    0.97180    1.000
    N3186    N        0.60044    0.16531    0.87963    1.000
    N3187    N        0.49894    0.14979    0.93695    1.000
    N3188    N        0.55037    0.13840    0.98395    1.000
    Si3189   Si       0.55837    0.15345    0.88755    1.000
    N3190    N        0.61416    0.15536    0.95343    1.000
    Si3191   Si       0.50674    0.18541    0.95952    1.000
    N3192    N        0.72328    0.15943    0.92605    1.000
    Si3193   Si       0.62335    0.14381    0.91335    1.000
    N3194    N        0.66372    0.15894    0.90139    1.000
    Si3195   Si       0.65170    0.15712    0.97506    1.000
    N3196    N        0.58606    0.20508    0.05350    1.000
    N3197    N        0.52955    0.20211    0.08908    1.000
    Si3198   Si       0.50474    0.23416    0.07717    1.000
    N3199    N        0.58532    0.23072    0.11219    1.000
    Si3200   Si       0.61076    0.19932    0.09561    1.000
    Si3201   Si       0.62524    0.20529    0.02800    1.000
    N3202    N        0.64591    0.21638    0.07097    1.000
    Si3203   Si       0.67046    0.19193    0.09619    1.000
    N3204    N        0.70297    0.20998    0.11487    1.000
    N3205    N        0.65413    0.23431    0.00760    1.000
    Si3206   Si       0.55249    0.19955    0.12787    1.000
    N3207    N        0.55884    0.21763    0.22279    1.000
    Si3208   Si       0.60167    0.22622    0.21629    1.000
    Si3209   Si       0.53356    0.21185    0.18952    1.000
    N3210    N        0.50083    0.22598    0.21571    1.000
    N3211    N        0.54061    0.23873    0.15503    1.000
    N3212    N        0.60787    0.22041    0.17266    1.000
    Si3213   Si       0.70741    0.20020    0.19283    1.000
    N3214    N        0.61833    0.19602    0.24005    1.000
    N3215    N        0.72867    0.19665    0.23162    1.000
    N3216    N        0.70294    0.24125    0.17610    1.000
    N3217    N        0.52333    0.21385    0.34075    1.000
    Si3218   Si       0.52874    0.22245    0.25676    1.000
    Si3219   Si       0.54623    0.23767    0.36815    1.000
    N3220    N        0.55334    0.19066    0.27974    1.000
    N3221    N        0.49141    0.21248    0.28086    1.000
    N3222    N        0.67598    0.20058    0.26793    1.000
    N3223    N        0.69217    0.20018    0.35120    1.000
    Si3224   Si       0.71949    0.20057    0.27308    1.000
    Si3225   Si       0.67172    0.23901    0.35673    1.000
    N3226    N        0.72127    0.24324    0.28709    1.000
    Si3227   Si       0.73295    0.18528    0.34696    1.000
    Si3228   Si       0.67639    0.24140    0.28193    1.000
    N3229    N        0.57161    0.21277    0.39281    1.000
    Si3230   Si       0.54386    0.20930    0.48286    1.000
    Si3231   Si       0.61068    0.22565    0.41067    1.000
    N3232    N        0.55575    0.24497    0.46170    1.000
    Si3233   Si       0.61654    0.20641    0.48494    1.000
    N3234    N        0.62108    0.19890    0.44257    1.000
    N3235    N        0.72400    0.18824    0.42851    1.000
    Si3236   Si       0.73115    0.21893    0.45618    1.000
    N3237    N        0.69938    0.22613    0.48452    1.000
    N3238    N        0.63950    0.21748    0.37862    1.000
    N3239    N        0.52220    0.22160    0.51930    1.000
    Si3240   Si       0.59593    0.21227    0.58383    1.000
    N3241    N        0.56439    0.18359    0.56792    1.000
    N3242    N        0.58006    0.21308    0.62253    1.000
    N3243    N        0.57925    0.18955    0.49834    1.000
    N3244    N        0.69978    0.19436    0.54859    1.000
    Si3245   Si       0.68688    0.19352    0.50758    1.000
    Si3246   Si       0.66952    0.21409    0.57306    1.000
    N3247    N        0.63401    0.19083    0.58203    1.000
    N3248    N        0.64382    0.18738    0.50997    1.000
    Si3249   Si       0.51750    0.23420    0.62476    1.000
    N3250    N        0.52067    0.19334    0.63730    1.000
    N3251    N        0.56914    0.22192    0.69892    1.000
    Si3252   Si       0.60067    0.19266    0.71251    1.000
    N3253    N        0.50008    0.20436    0.70647    1.000
    Si3254   Si       0.53757    0.19669    0.68157    1.000
    Si3255   Si       0.58020    0.23696    0.65826    1.000
    N3256    N        0.68088    0.23326    0.67076    1.000
    Si3257   Si       0.70119    0.19536    0.67298    1.000
    N3258    N        0.63602    0.22016    0.72197    1.000
    N3259    N        0.71397    0.18549    0.71362    1.000
    N3260    N        0.73694    0.21141    0.64843    1.000
    Si3261   Si       0.59003    0.20767    0.78235    1.000
    Si3262   Si       0.54514    0.21207    0.84417    1.000
    N3263    N        0.58138    0.19819    0.82442    1.000
    N3264    N        0.51422    0.19448    0.82142    1.000
    N3265    N        0.56413    0.24070    0.76898    1.000
    Si3266   Si       0.61567    0.19185    0.85106    1.000
    N3267    N        0.62947    0.22592    0.78905    1.000
    N3268    N        0.72131    0.20780    0.81964    1.000
    Si3269   Si       0.65913    0.21950    0.75804    1.000
    N3270    N        0.62676    0.23355    0.86160    1.000
    Si3271   Si       0.67010    0.22270    0.86144    1.000
    Si3272   Si       0.54267    0.22371    0.91839    1.000
    N3273    N        0.60235    0.20367    0.98864    1.000
    N3274    N        0.54209    0.19517    0.88467    1.000
    N3275    N        0.54707    0.19251    0.94901    1.000
    N3276    N        0.66802    0.19610    0.95942    1.000
    N3277    N        0.69584    0.22065    0.89443    1.000
    Si3278   Si       0.69441    0.21265    0.99493    1.000
    Si3279   Si       0.63457    0.22317    0.96754    1.000
    Si3280   Si       0.68904    0.18784    0.92091    1.000
    N3281    N        0.62640    0.24789    0.93410    1.000
    N3282    N        0.53548    0.26367    0.06378    1.000
    N3283    N        0.60613    0.27603    0.06679    1.000
    Si3284   Si       0.57518    0.24498    0.07373    1.000
    N3285    N        0.52769    0.30537    0.00057    1.000
    Si3286   Si       0.52261    0.30426    0.04713    1.000
    Si3287   Si       0.67703    0.27136    0.01946    1.000
    N3288    N        0.66916    0.28713    0.05772    1.000
    Si3289   Si       0.64315    0.25810    0.08077    1.000
    N3290    N        0.71343    0.25102    0.00986    1.000
    N3291    N        0.54172    0.28897    0.20464    1.000
    N3292    N        0.59501    0.29056    0.15674    1.000
    Si3293   Si       0.50795    0.26534    0.14312    1.000
    N3294    N        0.60556    0.26771    0.22839    1.000
    Si3295   Si       0.50239    0.27231    0.21404    1.000
    Si3296   Si       0.56721    0.28674    0.24026    1.000
    Si3297   Si       0.58452    0.24948    0.15123    1.000
    N3298    N        0.52758    0.30348    0.13818    1.000
    N3299    N        0.65481    0.25923    0.12370    1.000
    Si3300   Si       0.69721    0.24842    0.13316    1.000
    N3301    N        0.67724    0.26952    0.24762    1.000
    Si3302   Si       0.69358    0.27161    0.20304    1.000
    Si3303   Si       0.63893    0.29180    0.14978    1.000
    N3304    N        0.73190    0.28731    0.21670    1.000
    Si3305   Si       0.64114    0.29150    0.23106    1.000
    N3306    N        0.72527    0.28053    0.12410    1.000
    N3307    N        0.65807    0.28992    0.18814    1.000
    N3308    N        0.53666    0.26491    0.26519    1.000
    N3309    N        0.56284    0.26810    0.34156    1.000
    Si3310   Si       0.50144    0.29184    0.28049    1.000
    N3311    N        0.60157    0.29407    0.29581    1.000
    Si3312   Si       0.56249    0.30350    0.31885    1.000
    Si3313   Si       0.63447    0.29107    0.32649    1.000
    N3314    N        0.65989    0.25734    0.31762    1.000
    Si3315   Si       0.73206    0.27620    0.26047    1.000
    N3316    N        0.64197    0.29908    0.37004    1.000
    N3317    N        0.70275    0.26359    0.37303    1.000
    Si3318   Si       0.52320    0.26160    0.43687    1.000
    Si3319   Si       0.59172    0.26791    0.46458    1.000
    N3320    N        0.52326    0.26148    0.39388    1.000
    N3321    N        0.60998    0.26702    0.42464    1.000
    Si3322   Si       0.50996    0.30367    0.39163    1.000
    N3323    N        0.61644    0.24840    0.49405    1.000
    Si3324   Si       0.71309    0.26732    0.49102    1.000
    N3325    N        0.73503    0.26329    0.45370    1.000
    N3326    N        0.68809    0.30007    0.48419    1.000
    Si3327   Si       0.68431    0.30350    0.37883    1.000
    N3328    N        0.54021    0.28836    0.53079    1.000
    Si3329   Si       0.49841    0.29884    0.52772    1.000
    Si3330   Si       0.54452    0.24650    0.54554    1.000
    N3331    N        0.52233    0.24808    0.58328    1.000
    N3332    N        0.58724    0.24114    0.55290    1.000
    Si3333   Si       0.62101    0.26079    0.53636    1.000
    Si3334   Si       0.68634    0.27417    0.57490    1.000
    N3335    N        0.66132    0.25080    0.54765    1.000
    N3336    N        0.72179    0.29798    0.56894    1.000
    N3337    N        0.69003    0.24064    0.60291    1.000
    Si3338   Si       0.52518    0.29055    0.67813    1.000
    Si3339   Si       0.56430    0.25473    0.72848    1.000
    N3340    N        0.53954    0.25684    0.65538    1.000
    N3341    N        0.59371    0.28446    0.72165    1.000
    N3342    N        0.52248    0.27463    0.72030    1.000
    Si3343   Si       0.59486    0.29932    0.68090    1.000
    N3344    N        0.61388    0.26122    0.66498    1.000
    Si3345   Si       0.70927    0.24643    0.64088    1.000
    N3346    N        0.66377    0.28218    0.71924    1.000
    Si3347   Si       0.70151    0.28440    0.74145    1.000
    Si3348   Si       0.64753    0.25034    0.69253    1.000
    N3349    N        0.74200    0.27182    0.64995    1.000
    Si3350   Si       0.56680    0.27313    0.79931    1.000
    N3351    N        0.54656    0.25747    0.83522    1.000
    N3352    N        0.60841    0.28466    0.80655    1.000
    Si3353   Si       0.63405    0.25509    0.82043    1.000
    N3354    N        0.67678    0.25728    0.83384    1.000
    N3355    N        0.69299    0.24714    0.76654    1.000
    Si3356   Si       0.71030    0.24829    0.80544    1.000
    Si3357   Si       0.53882    0.27524    0.87309    1.000
    N3358    N        0.49987    0.26477    0.88921    1.000
    N3359    N        0.53124    0.25690    0.94574    1.000
    N3360    N        0.56847    0.25150    0.89707    1.000
    Si3361   Si       0.61067    0.25699    0.89504    1.000
    Si3362   Si       0.53487    0.29801    0.95862    1.000
    N3363    N        0.61655    0.30030    0.88154    1.000
    N3364    N        0.49241    0.30534    0.94606    1.000
    N3365    N        0.73077    0.27057    0.94619    1.000
    N3366    N        0.68343    0.29024    0.90960    1.000
    Si3367   Si       0.71541    0.25924    0.90664    1.000
    N3368    N        0.67083    0.29616    0.98556    1.000
    Si3369   Si       0.69671    0.29707    0.95126    1.000
    N3370    N        0.56057    0.32898    0.05043    1.000
    N3371    N        0.50864    0.33491    0.08204    1.000
    Si3372   Si       0.60208    0.31612    0.05073    1.000
    N3373    N        0.60635    0.32059    0.00849    1.000
    Si3374   Si       0.56307    0.33239    0.00373    1.000
    Si3375   Si       0.54512    0.35962    0.07909    1.000
    Si3376   Si       0.66219    0.32561    0.08300    1.000
    N3377    N        0.70331    0.34064    0.08336    1.000
    N3378    N        0.62817    0.34566    0.06632    1.000
    N3379    N        0.72797    0.34791    0.01698    1.000
    Si3380   Si       0.72608    0.32472    0.11751    1.000
    Si3381   Si       0.49919    0.33437    0.12788    1.000
    N3382    N        0.56136    0.34748    0.17810    1.000
    Si3383   Si       0.55722    0.30625    0.16772    1.000
    Si3384   Si       0.56303    0.35994    0.22181    1.000
    N3385    N        0.57648    0.32777    0.24796    1.000
    N3386    N        0.65104    0.32666    0.12733    1.000
    N3387    N        0.71099    0.34940    0.14998    1.000
    N3388    N        0.63969    0.33325    0.24122    1.000
    N3389    N        0.70821    0.35665    0.22268    1.000
    N3390    N        0.52492    0.32149    0.30260    1.000
    Si3391   Si       0.50419    0.35051    0.32972    1.000
    N3392    N        0.58092    0.33972    0.33546    1.000
    N3393    N        0.52334    0.33515    0.36517    1.000
    Si3394   Si       0.61149    0.33304    0.27674    1.000
    Si3395   Si       0.56437    0.35589    0.37378    1.000
    N3396    N        0.72825    0.31358    0.28004    1.000
    N3397    N        0.64577    0.33082    0.31116    1.000
    N3398    N        0.70548    0.32548    0.34658    1.000
    Si3399   Si       0.68233    0.35190    0.32176    1.000
    Si3400   Si       0.72839    0.35537    0.26224    1.000
    Si3401   Si       0.55991    0.32686    0.44280    1.000
    N3402    N        0.57799    0.32541    0.40451    1.000
    N3403    N        0.57904    0.30556    0.47640    1.000
    N3404    N        0.52176    0.30725    0.43571    1.000
    N3405    N        0.49740    0.33240    0.49943    1.000
    Si3406   Si       0.67580    0.32631    0.45157    1.000
    Si3407   Si       0.61573    0.30555    0.40384    1.000
    N3408    N        0.69938    0.31321    0.41854    1.000
    N3409    N        0.63577    0.33240    0.43372    1.000
    Si3410   Si       0.57345    0.31317    0.51834    1.000
    N3411    N        0.57234    0.35570    0.52289    1.000
    N3412    N        0.59122    0.32057    0.60675    1.000
    N3413    N        0.61126    0.30488    0.53913    1.000
    N3414    N        0.52263    0.35677    0.62241    1.000
    Si3415   Si       0.62216    0.32195    0.57645    1.000
    N3416    N        0.66531    0.31175    0.58395    1.000
    Si3417   Si       0.70588    0.33431    0.58459    1.000
    N3418    N        0.71937    0.33898    0.62434    1.000
    Si3419   Si       0.56312    0.34065    0.63384    1.000
    N3420    N        0.51520    0.34499    0.72816    1.000
    N3421    N        0.55812    0.31648    0.66901    1.000
    N3422    N        0.73523    0.33570    0.68924    1.000
    Si3423   Si       0.63000    0.30764    0.72866    1.000
    N3424    N        0.62446    0.32846    0.68856    1.000
    Si3425   Si       0.54784    0.34494    0.80166    1.000
    N3426    N        0.58552    0.34723    0.82451    1.000
    N3427    N        0.51053    0.34625    0.82357    1.000
    N3428    N        0.54695    0.30808    0.78051    1.000
    Si3429   Si       0.58728    0.33183    0.86596    1.000
    Si3430   Si       0.51507    0.30653    0.74868    1.000
    Si3431   Si       0.51468    0.34733    0.86676    1.000
    Si3432   Si       0.61694    0.32744    0.79825    1.000
    N3433    N        0.62494    0.33827    0.75660    1.000
    Si3434   Si       0.68378    0.35241    0.78825    1.000
    N3435    N        0.65255    0.34176    0.81486    1.000
    N3436    N        0.70442    0.31831    0.77143    1.000
    N3437    N        0.54727    0.31659    0.87391    1.000
    N3438    N        0.56880    0.32520    0.95604    1.000
    Si3439   Si       0.59663    0.35294    0.93796    1.000
    Si3440   Si       0.64886    0.31731    0.90296    1.000
    N3441    N        0.71057    0.33828    0.94727    1.000
    Si3442   Si       0.70703    0.35608    0.90688    1.000
    N3443    N        0.63505    0.32907    0.94049    1.000
    N3444    N        0.67036    0.35201    0.88632    1.000
    Si3445   Si       0.64098    0.32715    0.98345    1.000
    N3446    N        0.53182    0.39808    0.06312    1.000
    Si3447   Si       0.51706    0.38951    0.02315    1.000
    N3448    N        0.57602    0.36391    0.10829    1.000
    N3449    N        0.60571    0.41917    0.07350    1.000
    Si3450   Si       0.61300    0.38014    0.08976    1.000
    N3451    N        0.71294    0.41729    0.11561    1.000
    N3452    N        0.69247    0.39831    0.05184    1.000
    N3453    N        0.65104    0.39151    0.11276    1.000
    Si3454   Si       0.72318    0.36804    0.05509    1.000
    Si3455   Si       0.67801    0.41523    0.08995    1.000
    Si3456   Si       0.55580    0.37538    0.14686    1.000
    N3457    N        0.59368    0.38885    0.21800    1.000
    N3458    N        0.51275    0.37321    0.13755    1.000
    N3459    N        0.52921    0.38042    0.23758    1.000
    N3460    N        0.56080    0.41673    0.16045    1.000
    Si3461   Si       0.52514    0.42198    0.24380    1.000
    Si3462   Si       0.66990    0.36407    0.14207    1.000
    Si3463   Si       0.66615    0.36228    0.22228    1.000
    N3464    N        0.66132    0.38019    0.18155    1.000
    Si3465   Si       0.72837    0.36247    0.18494    1.000
    N3466    N        0.65682    0.40182    0.24077    1.000
    N3467    N        0.49810    0.39513    0.33026    1.000
    N3468    N        0.60932    0.37593    0.28825    1.000
    N3469    N        0.59899    0.38445    0.36822    1.000
    Si3470   Si       0.52101    0.41696    0.35841    1.000
    Si3471   Si       0.61636    0.36716    0.33031    1.000
    Si3472   Si       0.61465    0.40075    0.25330    1.000
    N3473    N        0.65937    0.38476    0.34068    1.000
    N3474    N        0.70006    0.37531    0.28872    1.000
    Si3475   Si       0.68657    0.41316    0.27321    1.000
    Si3476   Si       0.52233    0.38721    0.42930    1.000
    N3477    N        0.54089    0.39310    0.39036    1.000
    Si3478   Si       0.56782    0.38480    0.49025    1.000
    N3479    N        0.55334    0.36967    0.45185    1.000
    N3480    N        0.60860    0.38960    0.47656    1.000
    Si3481   Si       0.70767    0.39890    0.46562    1.000
    N3482    N        0.67746    0.36832    0.46479    1.000
    Si3483   Si       0.63736    0.37569    0.44658    1.000
    N3484    N        0.71343    0.41302    0.42422    1.000
    N3485    N        0.64372    0.41126    0.42186    1.000
    N3486    N        0.74072    0.37509    0.48074    1.000
    N3487    N        0.56071    0.39309    0.58579    1.000
    Si3488   Si       0.51861    0.38780    0.59151    1.000
    Si3489   Si       0.58671    0.38463    0.55296    1.000
    Si3490   Si       0.49946    0.37443    0.51615    1.000
    N3491    N        0.49843    0.36588    0.55844    1.000
    N3492    N        0.52940    0.40294    0.50288    1.000
    Si3493   Si       0.58140    0.40770    0.62078    1.000
    N3494    N        0.58447    0.41856    0.52668    1.000
    N3495    N        0.68783    0.40566    0.60651    1.000
    Si3496   Si       0.64719    0.38789    0.60001    1.000
    Si3497   Si       0.72025    0.40550    0.57486    1.000
    N3498    N        0.62417    0.36723    0.56913    1.000
    N3499    N        0.71780    0.36656    0.55587    1.000
    N3500    N        0.61849    0.42146    0.60306    1.000
    N3501    N        0.58832    0.37422    0.64700    1.000
    N3502    N        0.50079    0.41395    0.72608    1.000
    N3503    N        0.64459    0.38984    0.70022    1.000
    Si3504   Si       0.69967    0.37646    0.63661    1.000
    Si3505   Si       0.63566    0.37705    0.74095    1.000
    N3506    N        0.65684    0.36701    0.63623    1.000
    N3507    N        0.71009    0.39880    0.67112    1.000
    Si3508   Si       0.62716    0.36608    0.66863    1.000
    Si3509   Si       0.67603    0.41950    0.69069    1.000
    N3510    N        0.54304    0.38182    0.77605    1.000
    Si3511   Si       0.56980    0.41507    0.77145    1.000
    Si3512   Si       0.50866    0.38026    0.75062    1.000
    N3513    N        0.61120    0.40992    0.75498    1.000
    Si3514   Si       0.72794    0.40989    0.82124    1.000
    N3515    N        0.64508    0.40666    0.84624    1.000
    N3516    N        0.70306    0.37549    0.81921    1.000
    N3517    N        0.67687    0.38219    0.75775    1.000
    Si3518   Si       0.66742    0.36911    0.84650    1.000
    N3519    N        0.73067    0.42017    0.77915    1.000
    N3520    N        0.52232    0.38903    0.87880    1.000
    N3521    N        0.54980    0.40741    0.93709    1.000
    Si3522   Si       0.56956    0.40595    0.97604    1.000
    Si3523   Si       0.56250    0.40103    0.89625    1.000
    Si3524   Si       0.50796    0.40848    0.94937    1.000
    N3525    N        0.60645    0.38798    0.96100    1.000
    N3526    N        0.59074    0.36530    0.89425    1.000
    N3527    N        0.50439    0.41801    0.99127    1.000
    N3528    N        0.55163    0.37492    0.00213    1.000
    N3529    N        0.66413    0.36425    0.99150    1.000
    N3530    N        0.71711    0.40681    0.97577    1.000
    N3531    N        0.71933    0.39904    0.90581    1.000
    Si3532   Si       0.70787    0.36516    0.98247    1.000
    Si3533   Si       0.64570    0.40021    0.97415    1.000
    N3534    N        0.56172    0.46178    0.09676    1.000
    N3535    N        0.52437    0.46177    0.04142    1.000
    Si3536   Si       0.52853    0.43964    0.07901    1.000
    Si3537   Si       0.59791    0.46131    0.07233    1.000
    N3538    N        0.49192    0.43408    0.10650    1.000
    N3539    N        0.59751    0.47883    0.03390    1.000
    Si3540   Si       0.61099    0.45548    0.00186    1.000
    Si3541   Si       0.48965    0.44817    0.01884    1.000
    N3542    N        0.66637    0.45198    0.06971    1.000
    N3543    N        0.71355    0.45990    0.01432    1.000
    N3544    N        0.64507    0.42856    0.00775    1.000
    Si3545   Si       0.68240    0.43464    0.03067    1.000
    N3546    N        0.55244    0.44541    0.21662    1.000
    Si3547   Si       0.53153    0.44579    0.17794    1.000
    N3548    N        0.49334    0.42850    0.17821    1.000
    Si3549   Si       0.58617    0.42447    0.19546    1.000
    N3550    N        0.52940    0.48116    0.15616    1.000
    Si3551   Si       0.65776    0.42043    0.20000    1.000
    N3552    N        0.68907    0.45138    0.20104    1.000
    Si3553   Si       0.72643    0.43185    0.21426    1.000
    N3554    N        0.62426    0.43927    0.18366    1.000
    N3555    N        0.55851    0.44245    0.35288    1.000
    N3556    N        0.53679    0.44565    0.27872    1.000
    Si3557   Si       0.59129    0.47046    0.34274    1.000
    Si3558   Si       0.57177    0.46320    0.25751    1.000
    N3559    N        0.60836    0.44299    0.25314    1.000
    Si3560   Si       0.49706    0.46422    0.27789    1.000
    N3561    N        0.62276    0.44257    0.35559    1.000
    N3562    N        0.66380    0.44235    0.29857    1.000
    Si3563   Si       0.63398    0.46682    0.27886    1.000
    Si3564   Si       0.72842    0.45977    0.35914    1.000
    N3565    N        0.72205    0.43154    0.25794    1.000
    N3566    N        0.69083    0.43775    0.36633    1.000
    Si3567   Si       0.65892    0.42869    0.33909    1.000
    N3568    N        0.49478    0.44834    0.37294    1.000
    N3569    N        0.50895    0.42982    0.43689    1.000
    N3570    N        0.59045    0.45479    0.41248    1.000
    Si3571   Si       0.50470    0.46527    0.41240    1.000
    Si3572   Si       0.59016    0.42451    0.38192    1.000
    Si3573   Si       0.67967    0.43142    0.40694    1.000
    N3574    N        0.61643    0.45648    0.47646    1.000
    Si3575   Si       0.62676    0.45010    0.43554    1.000
    N3576    N        0.66622    0.47071    0.42443    1.000
    N3577    N        0.70193    0.43641    0.48566    1.000
    Si3578   Si       0.72748    0.46989    0.47310    1.000
    Si3579   Si       0.54673    0.43963    0.51749    1.000
    N3580    N        0.52572    0.45114    0.55191    1.000
    Si3581   Si       0.49366    0.45574    0.57853    1.000
    N3582    N        0.55283    0.47512    0.49597    1.000
    N3583    N        0.49431    0.42121    0.60464    1.000
    N3584    N        0.59471    0.48287    0.57553    1.000
    Si3585   Si       0.62902    0.45289    0.57353    1.000
    N3586    N        0.71780    0.44451    0.55671    1.000
    Si3587   Si       0.68737    0.44707    0.52574    1.000
    N3588    N        0.64702    0.43287    0.53768    1.000
    N3589    N        0.66517    0.47101    0.58954    1.000
    Si3590   Si       0.67686    0.44734    0.62463    1.000
    Si3591   Si       0.62108    0.42178    0.50393    1.000
    N3592    N        0.71756    0.46702    0.62307    1.000
    Si3593   Si       0.51655    0.45514    0.73403    1.000
    N3594    N        0.56160    0.43642    0.64534    1.000
    N3595    N        0.52323    0.47500    0.69632    1.000
    Si3596   Si       0.55596    0.47325    0.66618    1.000
    N3597    N        0.59094    0.48320    0.69122    1.000
    N3598    N        0.69428    0.44228    0.72319    1.000
    Si3599   Si       0.72277    0.47453    0.72451    1.000
    N3600    N        0.65742    0.45249    0.66413    1.000
    N3601    N        0.58977    0.43431    0.80730    1.000
    Si3602   Si       0.60870    0.43230    0.84651    1.000
    N3603    N        0.51833    0.45897    0.86580    1.000
    N3604    N        0.55548    0.44885    0.74840    1.000
    Si3605   Si       0.62238    0.44456    0.77806    1.000
    N3606    N        0.63544    0.46792    0.84211    1.000
    N3607    N        0.66374    0.44263    0.78817    1.000
    N3608    N        0.71026    0.44706    0.84206    1.000
    Si3609   Si       0.66918    0.44422    0.83281    1.000
    Si3610   Si       0.69127    0.42286    0.76177    1.000
    N3611    N        0.48909    0.43747    0.92312    1.000
    N3612    N        0.57170    0.44693    0.98977    1.000
    N3613    N        0.57948    0.43553    0.87772    1.000
    Si3614   Si       0.55612    0.47270    0.87845    1.000
    Si3615   Si       0.49633    0.42443    0.88202    1.000
    Si3616   Si       0.65319    0.46714    0.93452    1.000
    N3617    N        0.66221    0.42334    0.94104    1.000
    Si3618   Si       0.70824    0.42712    0.93631    1.000
    N3619    N        0.69946    0.47047    0.93163    1.000
    N3620    N        0.55939    0.52434    0.03556    1.000
    Si3621   Si       0.60211    0.52625    0.04583    1.000
    N3622    N        0.55697    0.52882    0.11434    1.000
    Si3623   Si       0.60068    0.53818    0.10863    1.000
    Si3624   Si       0.55485    0.48299    0.01459    1.000
    N3625    N        0.61588    0.50079    0.08689    1.000
    N3626    N        0.69255    0.51230    0.08891    1.000
    Si3627   Si       0.65786    0.48852    0.09180    1.000
    Si3628   Si       0.72644    0.53674    0.07767    1.000
    Si3629   Si       0.56294    0.48871    0.13099    1.000
    N3630    N        0.59596    0.49405    0.15667    1.000
    Si3631   Si       0.60872    0.53308    0.18093    1.000
    Si3632   Si       0.54160    0.53605    0.23539    1.000
    N3633    N        0.50495    0.53954    0.21007    1.000
    Si3634   Si       0.63622    0.47909    0.17005    1.000
    N3635    N        0.72089    0.51131    0.16774    1.000
    Si3636   Si       0.66257    0.53040    0.23304    1.000
    N3637    N        0.64555    0.51564    0.19498    1.000
    Si3638   Si       0.69515    0.51572    0.13358    1.000
    N3639    N        0.66280    0.48449    0.13602    1.000
    N3640    N        0.70528    0.51667    0.23481    1.000
    Si3641   Si       0.71075    0.48971    0.20365    1.000
    Si3642   Si       0.59940    0.51713    0.28147    1.000
    N3643    N        0.56445    0.50619    0.25549    1.000
    N3644    N        0.49368    0.51334    0.33904    1.000
    N3645    N        0.59947    0.48011    0.30229    1.000
    N3646    N        0.49513    0.50753    0.26849    1.000
    N3647    N        0.63816    0.50629    0.26070    1.000
    N3648    N        0.59391    0.50509    0.36839    1.000
    Si3649   Si       0.51720    0.52611    0.37196    1.000
    N3650    N        0.53438    0.49649    0.40163    1.000
    N3651    N        0.58651    0.51660    0.44461    1.000
    N3652    N        0.52121    0.52736    0.46668    1.000
    Si3653   Si       0.57638    0.49601    0.40844    1.000
    Si3654   Si       0.59155    0.49101    0.48051    1.000
    Si3655   Si       0.48876    0.52830    0.43662    1.000
    N3656    N        0.66465    0.53548    0.46969    1.000
    Si3657   Si       0.67725    0.51259    0.43185    1.000
    N3658    N        0.72942    0.49475    0.38650    1.000
    N3659    N        0.71973    0.50704    0.45145    1.000
    Si3660   Si       0.71775    0.53568    0.37554    1.000
    Si3661   Si       0.58002    0.51256    0.54620    1.000
    Si3662   Si       0.59015    0.50770    0.61172    1.000
    N3663    N        0.54125    0.52645    0.53151    1.000
    N3664    N        0.49563    0.49856    0.58744    1.000
    N3665    N        0.60953    0.51426    0.51412    1.000
    Si3666   Si       0.51635    0.51933    0.61918    1.000
    Si3667   Si       0.51610    0.49993    0.50469    1.000
    Si3668   Si       0.65312    0.52295    0.51257    1.000
    N3669    N        0.72729    0.51551    0.56906    1.000
    N3670    N        0.67814    0.48821    0.51783    1.000
    Si3671   Si       0.70779    0.48015    0.58363    1.000
    N3672    N        0.48699    0.51235    0.64907    1.000
    N3673    N        0.55252    0.50143    0.63269    1.000
    Si3674   Si       0.57797    0.48281    0.73202    1.000
    N3675    N        0.65761    0.51075    0.70532    1.000
    Si3676   Si       0.69343    0.53339    0.69278    1.000
    N3677    N        0.72349    0.50161    0.69106    1.000
    Si3678   Si       0.64192    0.51094    0.74486    1.000
    Si3679   Si       0.63214    0.48689    0.67508    1.000
    N3680    N        0.62307    0.51566    0.63676    1.000
    N3681    N        0.58164    0.50363    0.85988    1.000
    Si3682   Si       0.51923    0.51334    0.77541    1.000
    N3683    N        0.52668    0.50347    0.81737    1.000
    Si3684   Si       0.56221    0.52775    0.82955    1.000
    Si3685   Si       0.49244    0.48988    0.84820    1.000
    N3686    N        0.49398    0.53139    0.86392    1.000
    N3687    N        0.55528    0.51688    0.75058    1.000
    N3688    N        0.49471    0.48070    0.76058    1.000
    N3689    N        0.61494    0.47866    0.75318    1.000
    N3690    N        0.72054    0.49587    0.76295    1.000
    Si3691   Si       0.70193    0.52490    0.78730    1.000
    N3692    N        0.71304    0.51410    0.82857    1.000
    N3693    N        0.65985    0.52059    0.78231    1.000
    Si3694   Si       0.62469    0.50098    0.86576    1.000
    N3695    N        0.65081    0.53374    0.84868    1.000
    Si3696   Si       0.73556    0.48101    0.84367    1.000
    Si3697   Si       0.48722    0.51417    0.98193    1.000
    Si3698   Si       0.54924    0.52074    0.94573    1.000
    N3699    N        0.53119    0.50079    0.98222    1.000
    N3700    N        0.55140    0.48807    0.91752    1.000
    N3701    N        0.62827    0.47943    0.96875    1.000
    N3702    N        0.73940    0.52912    0.94729    1.000
    N3703    N        0.69489    0.53498    0.89804    1.000
    Si3704   Si       0.62624    0.52202    0.97308    1.000
    N3705    N        0.63741    0.49653    0.90530    1.000
    Si3706   Si       0.71998    0.50394    0.91588    1.000
    N3707    N        0.60388    0.56162    0.07198    1.000
    Si3708   Si       0.51988    0.55309    0.11312    1.000
    Si3709   Si       0.52402    0.54668    0.03773    1.000
    N3710    N        0.53168    0.59069    0.03722    1.000
    N3711    N        0.53687    0.59341    0.11080    1.000
    N3712    N        0.50157    0.54491    0.07513    1.000
    N3713    N        0.71126    0.57612    0.07627    1.000
    Si3714   Si       0.71849    0.58789    0.03422    1.000
    Si3715   Si       0.64967    0.57347    0.00219    1.000
    N3716    N        0.69295    0.56894    0.00432    1.000
    Si3717   Si       0.68765    0.59078    0.11018    1.000
    N3718    N        0.62711    0.53883    0.01370    1.000
    Si3719   Si       0.49984    0.57357    0.18298    1.000
    Si3720   Si       0.56403    0.58848    0.21385    1.000
    N3721    N        0.57883    0.54731    0.20710    1.000
    N3722    N        0.61130    0.55884    0.14647    1.000
    N3723    N        0.53564    0.59690    0.18388    1.000
    N3724    N        0.49096    0.55452    0.14489    1.000
    N3725    N        0.72382    0.57384    0.20918    1.000
    N3726    N        0.69039    0.55833    0.13904    1.000
    N3727    N        0.65248    0.57284    0.23497    1.000
    Si3728   Si       0.72373    0.56312    0.16704    1.000
    N3729    N        0.60059    0.54779    0.31087    1.000
    N3730    N        0.54646    0.55468    0.35935    1.000
    Si3731   Si       0.58733    0.54482    0.35141    1.000
    N3732    N        0.54628    0.57643    0.25062    1.000
    N3733    N        0.61697    0.57287    0.36592    1.000
    Si3734   Si       0.62466    0.58275    0.32188    1.000
    Si3735   Si       0.70859    0.57815    0.31370    1.000
    N3736    N        0.72184    0.57610    0.27207    1.000
    N3737    N        0.66525    0.58101    0.31540    1.000
    N3738    N        0.72248    0.54184    0.33368    1.000
    Si3739   Si       0.73778    0.54569    0.24429    1.000
    Si3740   Si       0.53422    0.58734    0.38720    1.000
    N3741    N        0.56144    0.57621    0.42298    1.000
    Si3742   Si       0.55886    0.55070    0.45651    1.000
    N3743    N        0.49434    0.55255    0.40064    1.000
    N3744    N        0.57150    0.57312    0.49275    1.000
    Si3745   Si       0.71246    0.54465    0.47527    1.000
    N3746    N        0.70329    0.57995    0.44558    1.000
    N3747    N        0.67837    0.53917    0.39654    1.000
    Si3748   Si       0.65471    0.57429    0.38714    1.000
    Si3749   Si       0.65793    0.57871    0.45923    1.000
    N3750    N        0.63315    0.58312    0.42501    1.000
    Si3751   Si       0.56074    0.57639    0.59291    1.000
    N3752    N        0.52431    0.56148    0.61145    1.000
    Si3753   Si       0.53654    0.57041    0.52253    1.000
    N3754    N        0.49721    0.58323    0.50669    1.000
    N3755    N        0.58612    0.54196    0.58147    1.000
    Si3756   Si       0.60686    0.59683    0.50956    1.000
    N3757    N        0.54832    0.59512    0.55617    1.000
    N3758    N        0.64192    0.57633    0.60785    1.000
    Si3759   Si       0.62413    0.56097    0.57233    1.000
    N3760    N        0.70868    0.55647    0.51764    1.000
    N3761    N        0.71042    0.57791    0.58771    1.000
    Si3762   Si       0.69992    0.54878    0.55818    1.000
    N3763    N        0.65668    0.54189    0.55350    1.000
    N3764    N        0.68629    0.57065    0.71608    1.000
    Si3765   Si       0.71621    0.59620    0.73316    1.000
    Si3766   Si       0.64446    0.55247    0.64353    1.000
    Si3767   Si       0.64290    0.57989    0.71548    1.000
    Si3768   Si       0.70470    0.58441    0.62860    1.000
    N3769    N        0.68694    0.55013    0.65102    1.000
    N3770    N        0.62030    0.54943    0.73905    1.000
    N3771    N        0.62759    0.57864    0.67500    1.000
    N3772    N        0.54170    0.56764    0.82961    1.000
    Si3773   Si       0.58386    0.54783    0.76191    1.000
    Si3774   Si       0.49939    0.55888    0.82937    1.000
    N3775    N        0.57195    0.59106    0.76250    1.000
    N3776    N        0.49784    0.55185    0.78325    1.000
    N3777    N        0.59355    0.53998    0.80224    1.000
    Si3778   Si       0.69255    0.54204    0.85608    1.000
    N3779    N        0.65417    0.58618    0.81110    1.000
    N3780    N        0.71603    0.56572    0.78535    1.000
    N3781    N        0.70944    0.58158    0.85156    1.000
    Si3782   Si       0.63840    0.54627    0.80931    1.000
    N3783    N        0.52472    0.55306    0.92592    1.000
    Si3784   Si       0.59993    0.57731    0.93910    1.000
    Si3785   Si       0.52250    0.59772    0.93097    1.000
    N3786    N        0.58853    0.53902    0.95663    1.000
    N3787    N        0.62326    0.56621    0.90424    1.000
    Si3788   Si       0.70311    0.55174    0.96461    1.000
    N3789    N        0.71752    0.58930    0.94187    1.000
    N3790    N        0.62913    0.59414    0.96758    1.000
    N3791    N        0.66235    0.54056    0.95503    1.000
    Si3792   Si       0.65398    0.53723    0.91299    1.000
    N3793    N        0.58797    0.62643    0.07652    1.000
    Si3794   Si       0.54596    0.61176    0.07262    1.000
    Si3795   Si       0.51185    0.61161    0.00586    1.000
    N3796    N        0.52039    0.64799    0.06952    1.000
    N3797    N        0.53708    0.64770    0.00227    1.000
    Si3798   Si       0.59476    0.65413    0.11033    1.000
    N3799    N        0.71016    0.62968    0.03475    1.000
    N3800    N        0.64482    0.60481    0.03366    1.000
    Si3801   Si       0.67034    0.63748    0.01951    1.000
    N3802    N        0.64508    0.60239    0.10548    1.000
    Si3803   Si       0.62269    0.60112    0.06892    1.000
    Si3804   Si       0.54665    0.61559    0.14520    1.000
    N3805    N        0.59845    0.61248    0.21449    1.000
    N3806    N        0.58991    0.62887    0.14616    1.000
    Si3807   Si       0.59239    0.64672    0.18759    1.000
    N3808    N        0.52142    0.65090    0.14271    1.000
    N3809    N        0.70520    0.62181    0.13727    1.000
    N3810    N        0.64886    0.61773    0.17524    1.000
    Si3811   Si       0.62567    0.60035    0.14461    1.000
    Si3812   Si       0.64119    0.61117    0.21831    1.000
    N3813    N        0.70668    0.64298    0.20888    1.000
    Si3814   Si       0.68481    0.64190    0.16907    1.000
    Si3815   Si       0.72172    0.60869    0.23918    1.000
    N3816    N        0.53915    0.62197    0.31060    1.000
    Si3817   Si       0.50757    0.63953    0.33827    1.000
    Si3818   Si       0.57616    0.63695    0.33374    1.000
    N3819    N        0.60784    0.61925    0.30850    1.000
    Si3820   Si       0.52103    0.60046    0.27633    1.000
    N3821    N        0.51116    0.63504    0.24910    1.000
    N3822    N        0.56650    0.61490    0.37148    1.000
    Si3823   Si       0.61686    0.65108    0.27804    1.000
    N3824    N        0.72311    0.61471    0.33319    1.000
    N3825    N        0.70898    0.64141    0.27193    1.000
    Si3826   Si       0.70500    0.63859    0.36504    1.000
    Si3827   Si       0.73101    0.64852    0.30678    1.000
    N3828    N        0.64548    0.64284    0.24636    1.000
    N3829    N        0.50130    0.61279    0.37127    1.000
    N3830    N        0.60422    0.64059    0.41269    1.000
    Si3831   Si       0.59553    0.59653    0.40334    1.000
    N3832    N        0.48807    0.63988    0.45583    1.000
    N3833    N        0.66863    0.64557    0.44398    1.000
    Si3834   Si       0.65720    0.64546    0.48767    1.000
    Si3835   Si       0.64689    0.64287    0.40617    1.000
    N3836    N        0.67094    0.61613    0.37976    1.000
    N3837    N        0.64432    0.60272    0.49094    1.000
    N3838    N        0.73386    0.65580    0.47211    1.000
    Si3839   Si       0.57331    0.63209    0.55170    1.000
    N3840    N        0.58723    0.63483    0.50891    1.000
    N3841    N        0.58655    0.65454    0.59043    1.000
    N3842    N        0.58349    0.59913    0.62373    1.000
    N3843    N        0.61051    0.60050    0.55617    1.000
    Si3844   Si       0.62095    0.61736    0.60053    1.000
    N3845    N        0.65556    0.64343    0.59006    1.000
    N3846    N        0.50347    0.63685    0.66578    1.000
    N3847    N        0.57379    0.61967    0.69421    1.000
    Si3848   Si       0.60321    0.61117    0.66335    1.000
    Si3849   Si       0.58662    0.62148    0.73687    1.000
    Si3850   Si       0.54183    0.64636    0.68283    1.000
    N3851    N        0.62870    0.64123    0.64590    1.000
    N3852    N        0.72492    0.62907    0.70619    1.000
    Si3853   Si       0.73487    0.62565    0.66540    1.000
    N3854    N        0.63174    0.61983    0.72945    1.000
    N3855    N        0.69768    0.62565    0.64224    1.000
    N3856    N        0.58056    0.62077    0.82421    1.000
    N3857    N        0.51493    0.61697    0.78699    1.000
    Si3858   Si       0.55072    0.59904    0.80184    1.000
    Si3859   Si       0.56734    0.65975    0.83936    1.000
    Si3860   Si       0.50170    0.65698    0.79899    1.000
    Si3861   Si       0.62321    0.61820    0.82049    1.000
    N3862    N        0.69410    0.61844    0.76518    1.000
    N3863    N        0.63469    0.63431    0.85944    1.000
    N3864    N        0.71022    0.63893    0.82658    1.000
    Si3865   Si       0.65902    0.64111    0.75415    1.000
    Si3866   Si       0.70996    0.62314    0.86651    1.000
    N3867    N        0.63367    0.64700    0.78882    1.000
    Si3868   Si       0.69577    0.59935    0.80649    1.000
    Si3869   Si       0.57685    0.64708    0.92235    1.000
    N3870    N        0.56604    0.60711    0.93376    1.000
    N3871    N        0.50764    0.62142    0.89670    1.000
    N3872    N        0.49780    0.60355    0.96566    1.000
    N3873    N        0.68571    0.63989    0.89717    1.000
    N3874    N        0.67514    0.64622    0.97272    1.000
    Si3875   Si       0.70054    0.63167    0.93866    1.000
    N3876    N        0.62058    0.65110    0.92661    1.000
    Si3877   Si       0.63256    0.63676    0.96436    1.000
    N3878    N        0.73901    0.65435    0.94001    1.000
    Si3879   Si       0.52129    0.67319    0.10632    1.000
    N3880    N        0.56411    0.68473    0.10627    1.000
    N3881    N        0.50991    0.70625    0.02299    1.000
    Si3882   Si       0.50956    0.66479    0.03228    1.000
    N3883    N        0.60630    0.70661    0.05376    1.000
    N3884    N        0.49245    0.70493    0.10485    1.000
    Si3885   Si       0.61719    0.69215    0.01322    1.000
    Si3886   Si       0.64484    0.69315    0.07232    1.000
    N3887    N        0.65279    0.67398    0.03630    1.000
    N3888    N        0.63293    0.67819    0.11108    1.000
    N3889    N        0.72487    0.69354    0.05619    1.000
    Si3890   Si       0.52165    0.67538    0.17824    1.000
    N3891    N        0.61048    0.68716    0.17744    1.000
    N3892    N        0.55527    0.66589    0.20502    1.000
    Si3893   Si       0.54100    0.66679    0.24765    1.000
    N3894    N        0.53656    0.71684    0.17089    1.000
    Si3895   Si       0.64190    0.69740    0.14995    1.000
    Si3896   Si       0.68547    0.66150    0.24502    1.000
    N3897    N        0.67995    0.68225    0.15862    1.000
    N3898    N        0.68136    0.70305    0.25063    1.000
    N3899    N        0.52205    0.67982    0.34093    1.000
    N3900    N        0.59039    0.67196    0.35409    1.000
    N3901    N        0.57781    0.67154    0.27057    1.000
    N3902    N        0.52687    0.70765    0.26022    1.000
    Si3903   Si       0.57235    0.71592    0.26962    1.000
    N3904    N        0.71394    0.67565    0.33618    1.000
    N3905    N        0.63752    0.68128    0.30291    1.000
    Si3906   Si       0.62942    0.68809    0.34721    1.000
    Si3907   Si       0.72863    0.71379    0.34530    1.000
    N3908    N        0.49208    0.70416    0.43316    1.000
    N3909    N        0.58826    0.70773    0.42068    1.000
    Si3910   Si       0.50551    0.69505    0.38626    1.000
    N3911    N        0.54049    0.67067    0.48075    1.000
    Si3912   Si       0.51506    0.66993    0.44452    1.000
    N3913    N        0.53597    0.66880    0.40584    1.000
    Si3914   Si       0.57808    0.67159    0.39656    1.000
    Si3915   Si       0.58185    0.67370    0.49030    1.000
    N3916    N        0.65593    0.68201    0.38377    1.000
    N3917    N        0.72545    0.65572    0.40011    1.000
    Si3918   Si       0.70778    0.66343    0.43909    1.000
    N3919    N        0.62725    0.67731    0.48397    1.000
    N3920    N        0.70132    0.70768    0.43686    1.000
    N3921    N        0.54500    0.66621    0.54506    1.000
    N3922    N        0.51451    0.68138    0.60621    1.000
    Si3923   Si       0.51809    0.68116    0.51637    1.000
    Si3924   Si       0.55037    0.68018    0.58347    1.000
    N3925    N        0.63529    0.70055    0.55378    1.000
    Si3926   Si       0.72734    0.67334    0.51190    1.000
    N3927    N        0.70289    0.68907    0.58211    1.000
    Si3928   Si       0.67069    0.67089    0.55972    1.000
    Si3929   Si       0.62645    0.71095    0.51225    1.000
    N3930    N        0.62036    0.70597    0.62193    1.000
    N3931    N        0.68599    0.65878    0.52077    1.000
    N3932    N        0.72054    0.71700    0.50619    1.000
    Si3933   Si       0.59927    0.66991    0.63011    1.000
    N3934    N        0.53775    0.68636    0.70712    1.000
    N3935    N        0.56518    0.67347    0.65499    1.000
    Si3936   Si       0.56140    0.70813    0.67870    1.000
    Si3937   Si       0.54520    0.68666    0.74920    1.000
    N3938    N        0.59905    0.71589    0.70151    1.000
    Si3939   Si       0.71605    0.71392    0.66610    1.000
    N3940    N        0.68026    0.67467    0.73712    1.000
    N3941    N        0.72926    0.70187    0.70676    1.000
    N3942    N        0.67955    0.69564    0.64938    1.000
    Si3943   Si       0.72354    0.66542    0.72955    1.000
    Si3944   Si       0.66979    0.65564    0.63076    1.000
    N3945    N        0.59299    0.69147    0.82396    1.000
    N3946    N        0.50568    0.68702    0.76719    1.000
    Si3947   Si       0.60307    0.67931    0.78418    1.000
    N3948    N        0.52397    0.66247    0.83443    1.000
    N3949    N        0.57708    0.65827    0.75527    1.000
    Si3950   Si       0.72438    0.67453    0.80479    1.000
    N3951    N        0.69155    0.70548    0.79893    1.000
    Si3952   Si       0.67073    0.71312    0.76096    1.000
    N3953    N        0.62898    0.71148    0.76653    1.000
    N3954    N        0.56336    0.65795    0.88238    1.000
    N3955    N        0.55693    0.68145    0.94306    1.000
    Si3956   Si       0.56635    0.67298    0.98432    1.000
    Si3957   Si       0.51933    0.66151    0.87986    1.000
    N3958    N        0.60382    0.65415    0.99270    1.000
    N3959    N        0.69360    0.70445    0.93028    1.000
    N3960    N        0.72114    0.69902    0.98431    1.000
    Si3961   Si       0.67971    0.69363    0.97072    1.000
    N3962    N        0.64524    0.70164    0.88008    1.000
    Si3963   Si       0.64659    0.65964    0.89114    1.000
    N3964    N        0.64238    0.71397    0.98356    1.000
    N3965    N        0.54439    0.74196    0.07081    1.000
    N3966    N        0.59924    0.74340    0.10918    1.000
    Si3967   Si       0.50610    0.74568    0.09476    1.000
    Si3968   Si       0.53719    0.73284    0.00063    1.000
    Si3969   Si       0.57702    0.71860    0.08164    1.000
    N3970    N        0.57690    0.71389    0.99738    1.000
    N3971    N        0.72695    0.76018    0.05155    1.000
    Si3972   Si       0.64169    0.75090    0.10902    1.000
    Si3973   Si       0.71058    0.72809    0.07701    1.000
    N3974    N        0.66801    0.72899    0.08122    1.000
    N3975    N        0.52755    0.76437    0.12873    1.000
    Si3976   Si       0.51432    0.75398    0.16805    1.000
    N3977    N        0.57842    0.72917    0.22803    1.000
    N3978    N        0.58978    0.75608    0.17188    1.000
    Si3979   Si       0.57118    0.76628    0.13378    1.000
    Si3980   Si       0.56975    0.76779    0.20915    1.000
    Si3981   Si       0.57566    0.71089    0.18871    1.000
    Si3982   Si       0.69242    0.73687    0.22666    1.000
    N3983    N        0.65476    0.75587    0.21733    1.000
    N3984    N        0.72578    0.72239    0.11872    1.000
    N3985    N        0.71644    0.73102    0.19087    1.000
    Si3986   Si       0.69699    0.72226    0.15137    1.000
    Si3987   Si       0.63377    0.76386    0.18068    1.000
    N3988    N        0.65709    0.74051    0.14869    1.000
    Si3989   Si       0.60393    0.75252    0.31356    1.000
    N3990    N        0.56459    0.73180    0.30971    1.000
    N3991    N        0.51678    0.73687    0.36781    1.000
    N3992    N        0.49156    0.73580    0.30823    1.000
    Si3993   Si       0.49208    0.73422    0.26433    1.000
    Si3994   Si       0.52700    0.71994    0.32620    1.000
    N3995    N        0.61918    0.74217    0.27472    1.000
    N3996    N        0.62922    0.73284    0.34301    1.000
    N3997    N        0.67882    0.74652    0.30396    1.000
    Si3998   Si       0.66741    0.75376    0.34496    1.000
    Si3999   Si       0.71656    0.76544    0.29360    1.000
    N4000    N        0.71914    0.76328    0.25079    1.000
    Si4001   Si       0.65413    0.71738    0.28303    1.000
    Si4002   Si       0.60529    0.74883    0.42247    1.000
    N4003    N        0.58649    0.76829    0.38673    1.000
    Si4004   Si       0.54325    0.76687    0.38420    1.000
    N4005    N        0.58419    0.77353    0.45288    1.000
    Si4006   Si       0.58691    0.75801    0.49422    1.000
    Si4007   Si       0.67325    0.71599    0.40465    1.000
    N4008    N        0.69872    0.73407    0.37071    1.000
    N4009    N        0.64894    0.74856    0.42000    1.000
    Si4010   Si       0.71543    0.73545    0.46601    1.000
    N4011    N        0.68772    0.76838    0.47441    1.000
    Si4012   Si       0.53104    0.74949    0.59203    1.000
    N4013    N        0.56570    0.72171    0.58307    1.000
    N4014    N        0.49798    0.73304    0.56969    1.000
    Si4015   Si       0.60966    0.72175    0.58149    1.000
    N4016    N        0.49962    0.72126    0.50365    1.000
    N4017    N        0.58342    0.71640    0.50547    1.000
    Si4018   Si       0.72042    0.75010    0.53415    1.000
    N4019    N        0.68131    0.75045    0.61301    1.000
    Si4020   Si       0.71686    0.72588    0.60076    1.000
    N4021    N        0.62105    0.76329    0.57966    1.000
    N4022    N        0.68169    0.76501    0.54342    1.000
    N4023    N        0.63104    0.75182    0.49918    1.000
    N4024    N        0.49187    0.76757    0.69434    1.000
    Si4025   Si       0.60006    0.73075    0.74161    1.000
    N4026    N        0.50533    0.74690    0.62770    1.000
    N4027    N        0.55687    0.75080    0.67202    1.000
    Si4028   Si       0.59978    0.76127    0.68420    1.000
    Si4029   Si       0.51893    0.76911    0.66293    1.000
    N4030    N        0.60480    0.77181    0.72872    1.000
    Si4031   Si       0.67354    0.77060    0.69625    1.000
    N4032    N        0.68105    0.74722    0.73578    1.000
    Si4033   Si       0.65347    0.72773    0.64005    1.000
    Si4034   Si       0.72299    0.74446    0.72196    1.000
    N4035    N        0.64124    0.75613    0.66973    1.000
    N4036    N        0.71356    0.75813    0.68110    1.000
    N4037    N        0.53392    0.74690    0.82755    1.000
    Si4038   Si       0.54799    0.75218    0.78764    1.000
    N4039    N        0.51197    0.75824    0.76225    1.000
    Si4040   Si       0.55224    0.75874    0.86538    1.000
    N4041    N        0.56614    0.72084    0.76550    1.000
    Si4042   Si       0.49069    0.75828    0.82430    1.000
    N4043    N        0.64399    0.74785    0.83225    1.000
    Si4044   Si       0.68484    0.73565    0.82841    1.000
    Si4045   Si       0.61752    0.71762    0.85123    1.000
    N4046    N        0.70198    0.73776    0.86825    1.000
    N4047    N        0.74421    0.76904    0.75093    1.000
    N4048    N        0.69579    0.77479    0.81046    1.000
    N4049    N        0.59363    0.74685    0.87304    1.000
    N4050    N        0.53122    0.73915    0.89826    1.000
    N4051    N        0.51747    0.73487    0.96227    1.000
    Si4052   Si       0.60793    0.73957    0.97612    1.000
    Si4053   Si       0.60934    0.76537    0.90980    1.000
    Si4054   Si       0.54943    0.72344    0.93481    1.000
    N4055    N        0.58574    0.74706    0.93924    1.000
    Si4056   Si       0.48974    0.73174    0.89889    1.000
    Si4057   Si       0.67328    0.72811    0.90007    1.000
    N4058    N        0.65052    0.75776    0.92584    1.000
    N4059    N        0.58436    0.80264    0.05084    1.000
    N4060    N        0.51051    0.80650    0.07099    1.000
    Si4061   Si       0.59916    0.81120    0.01007    1.000
    Si4062   Si       0.60469    0.81460    0.08585    1.000
    Si4063   Si       0.54565    0.78209    0.05737    1.000
    N4064    N        0.57848    0.80859    0.12030    1.000
    N4065    N        0.53841    0.77317    0.01439    1.000
    N4066    N        0.64089    0.79275    0.09699    1.000
    Si4067   Si       0.70631    0.79497    0.02966    1.000
    N4068    N        0.69087    0.82511    0.05730    1.000
    Si4069   Si       0.66762    0.82735    0.09219    1.000
    N4070    N        0.60045    0.79551    0.22232    1.000
    Si4071   Si       0.50372    0.80533    0.22519    1.000
    N4072    N        0.52958    0.77820    0.20187    1.000
    Si4073   Si       0.60983    0.82875    0.19603    1.000
    Si4074   Si       0.73670    0.82323    0.12753    1.000
    N4075    N        0.69304    0.82772    0.12738    1.000
    N4076    N        0.63888    0.80629    0.17243    1.000
    N4077    N        0.54599    0.80214    0.35500    1.000
    Si4078   Si       0.59068    0.80058    0.35835    1.000
    Si4079   Si       0.51287    0.82725    0.34387    1.000
    N4080    N        0.49077    0.77784    0.25752    1.000
    N4081    N        0.60913    0.79465    0.31928    1.000
    N4082    N        0.64960    0.81186    0.26442    1.000
    N4083    N        0.72189    0.80682    0.29959    1.000
    N4084    N        0.67908    0.79195    0.36258    1.000
    Si4085   Si       0.62921    0.82831    0.29875    1.000
    Si4086   Si       0.65999    0.83092    0.36499    1.000
    Si4087   Si       0.62986    0.77631    0.24852    1.000
    Si4088   Si       0.55521    0.80514    0.44281    1.000
    N4089    N        0.52888    0.81299    0.47699    1.000
    N4090    N        0.52489    0.78259    0.41941    1.000
    N4091    N        0.64714    0.81521    0.43471    1.000
    N4092    N        0.71138    0.79202    0.41829    1.000
    N4093    N        0.61662    0.83281    0.36899    1.000
    Si4094   Si       0.67312    0.78270    0.43717    1.000
    Si4095   Si       0.71438    0.77555    0.37863    1.000
    Si4096   Si       0.53759    0.80960    0.52134    1.000
    N4097    N        0.54928    0.79045    0.58933    1.000
    N4098    N        0.50060    0.79073    0.53677    1.000
    Si4099   Si       0.52651    0.82105    0.60883    1.000
    Si4100   Si       0.58813    0.78985    0.56802    1.000
    N4101    N        0.57364    0.78438    0.52737    1.000
    N4102    N        0.73487    0.81829    0.57203    1.000
    N4103    N        0.66818    0.81892    0.58639    1.000
    N4104    N        0.64893    0.82060    0.51290    1.000
    Si4105   Si       0.66252    0.78040    0.50756    1.000
    Si4106   Si       0.66473    0.77616    0.58076    1.000
    N4107    N        0.59611    0.80747    0.67970    1.000
    N4108    N        0.53087    0.81131    0.65150    1.000
    N4109    N        0.54556    0.80667    0.71937    1.000
    Si4110   Si       0.55694    0.82572    0.68306    1.000
    Si4111   Si       0.50758    0.78691    0.73107    1.000
    Si4112   Si       0.58162    0.80277    0.74495    1.000
    Si4113   Si       0.63263    0.82931    0.67886    1.000
    N4114    N        0.67117    0.81351    0.69188    1.000
    Si4115   Si       0.51119    0.81915    0.85728    1.000
    N4116    N        0.57352    0.78910    0.78545    1.000
    Si4117   Si       0.59887    0.82318    0.79949    1.000
    N4118    N        0.49827    0.80192    0.81860    1.000
    N4119    N        0.55059    0.80225    0.86319    1.000
    N4120    N        0.69885    0.82246    0.75632    1.000
    N4121    N        0.64135    0.81536    0.80140    1.000
    Si4122   Si       0.65912    0.78962    0.83021    1.000
    Si4123   Si       0.71861    0.79145    0.78064    1.000
    N4124    N        0.67062    0.79731    0.87111    1.000
    N4125    N        0.49910    0.79899    0.96734    1.000
    N4126    N        0.56608    0.82573    0.98648    1.000
    N4127    N        0.60756    0.80897    0.89570    1.000
    Si4128   Si       0.49895    0.82775    0.93328    1.000
    Si4129   Si       0.52650    0.81034    0.99798    1.000
    N4130    N        0.72487    0.82953    0.87923    1.000
    N4131    N        0.73138    0.77492    0.92109    1.000
    Si4132   Si       0.64878    0.82116    0.90298    1.000
    N4133    N        0.65434    0.82139    0.94416    1.000
    Si4134   Si       0.72707    0.79629    0.95966    1.000
    N4135    N        0.62188    0.77970    0.98982    1.000
    Si4136   Si       0.71471    0.78346    0.87679    1.000
    N4137    N        0.69612    0.78518    0.98710    1.000
    Si4138   Si       0.65813    0.78257    0.96283    1.000
    N4139    N        0.52676    0.87486    0.07522    1.000
    Si4140   Si       0.50318    0.88055    0.03986    1.000
    Si4141   Si       0.50321    0.84238    0.09302    1.000
    N4142    N        0.50180    0.84451    0.01371    1.000
    N4143    N        0.57917    0.87652    0.11867    1.000
    Si4144   Si       0.62384    0.87427    0.04563    1.000
    N4145    N        0.62576    0.84537    0.01201    1.000
    N4146    N        0.62973    0.85281    0.08406    1.000
    Si4147   Si       0.72825    0.84739    0.05770    1.000
    Si4148   Si       0.62264    0.88132    0.11807    1.000
    Si4149   Si       0.54281    0.86361    0.20866    1.000
    N4150    N        0.50656    0.88052    0.19264    1.000
    Si4151   Si       0.55771    0.84425    0.14004    1.000
    N4152    N        0.57131    0.84538    0.18156    1.000
    N4153    N        0.51475    0.84122    0.13535    1.000
    N4154    N        0.52880    0.83757    0.24084    1.000
    N4155    N        0.69143    0.83857    0.20272    1.000
    Si4156   Si       0.73457    0.84840    0.20651    1.000
    Si4157   Si       0.67005    0.83530    0.16300    1.000
    N4158    N        0.62987    0.86396    0.21980    1.000
    N4159    N        0.64377    0.87000    0.15512    1.000
    Si4160   Si       0.66570    0.84399    0.23825    1.000
    Si4161   Si       0.51001    0.85699    0.27421    1.000
    N4162    N        0.59866    0.85700    0.28819    1.000
    N4163    N        0.53172    0.85036    0.31060    1.000
    Si4164   Si       0.56841    0.87371    0.31546    1.000
    N4165    N        0.57030    0.88116    0.35821    1.000
    Si4166   Si       0.60506    0.88260    0.25397    1.000
    N4167    N        0.68240    0.86943    0.26590    1.000
    Si4168   Si       0.70117    0.84697    0.30084    1.000
    N4169    N        0.66373    0.84352    0.32425    1.000
    Si4170   Si       0.52922    0.88852    0.37426    1.000
    N4171    N        0.50366    0.85317    0.37828    1.000
    Si4172   Si       0.59263    0.85964    0.38994    1.000
    N4173    N        0.52038    0.87966    0.46684    1.000
    Si4174   Si       0.55935    0.87975    0.44103    1.000
    N4175    N        0.56727    0.84268    0.42241    1.000
    Si4176   Si       0.49720    0.84399    0.47609    1.000
    Si4177   Si       0.71607    0.88005    0.39260    1.000
    N4178    N        0.68078    0.85596    0.39383    1.000
    Si4179   Si       0.65474    0.85747    0.42876    1.000
    N4180    N        0.67621    0.86651    0.46497    1.000
    N4181    N        0.62135    0.88492    0.41212    1.000
    N4182    N        0.55012    0.84907    0.52999    1.000
    Si4183   Si       0.56867    0.86007    0.56835    1.000
    N4184    N        0.53745    0.86108    0.59870    1.000
    Si4185   Si       0.54849    0.88423    0.50426    1.000
    N4186    N        0.59934    0.83129    0.57725    1.000
    Si4187   Si       0.66518    0.85834    0.50507    1.000
    N4188    N        0.70214    0.85786    0.52948    1.000
    Si4189   Si       0.63405    0.84539    0.59777    1.000
    N4190    N        0.71369    0.87355    0.59935    1.000
    Si4191   Si       0.70225    0.84080    0.57155    1.000
    N4192    N        0.64896    0.88292    0.58539    1.000
    N4193    N        0.55530    0.86882    0.68345    1.000
    Si4194   Si       0.61511    0.87630    0.74284    1.000
    N4195    N        0.62927    0.84775    0.64006    1.000
    Si4196   Si       0.73723    0.88590    0.74609    1.000
    Si4197   Si       0.62884    0.88908    0.66037    1.000
    N4198    N        0.62481    0.86827    0.70042    1.000
    N4199    N        0.70820    0.87906    0.71358    1.000
    Si4200   Si       0.70298    0.83479    0.71160    1.000
    N4201    N        0.52159    0.86127    0.85663    1.000
    Si4202   Si       0.50957    0.87973    0.81955    1.000
    N4203    N        0.59243    0.84745    0.83279    1.000
    N4204    N        0.59609    0.84092    0.75853    1.000
    Si4205   Si       0.57758    0.88682    0.83702    1.000
    N4206    N        0.54802    0.89081    0.80484    1.000
    N4207    N        0.65304    0.87786    0.76428    1.000
    Si4208   Si       0.69661    0.85469    0.86118    1.000
    N4209    N        0.69591    0.85168    0.81892    1.000
    Si4210   Si       0.66956    0.84395    0.78385    1.000
    Si4211   Si       0.72617    0.88413    0.81502    1.000
    N4212    N        0.53320    0.85430    0.92958    1.000
    Si4213   Si       0.53678    0.88254    0.89369    1.000
    Si4214   Si       0.56116    0.85883    0.96024    1.000
    N4215    N        0.57795    0.88216    0.88316    1.000
    Si4216   Si       0.57839    0.83315    0.87288    1.000
    N4217    N        0.68701    0.86996    0.98764    1.000
    Si4218   Si       0.71946    0.87592    0.96045    1.000
    N4219    N        0.65993    0.85875    0.88479    1.000
    Si4220   Si       0.66017    0.89321    0.91235    1.000
    N4221    N        0.63487    0.88611    0.94894    1.000
    Si4222   Si       0.65029    0.85320    0.97339    1.000
    N4223    N        0.73738    0.83793    0.94830    1.000
    Si4224   Si       0.56268    0.91414    0.01672    1.000
    N4225    N        0.55749    0.93876    0.09572    1.000
    N4226    N        0.51937    0.91014    0.01284    1.000
    Si4227   Si       0.56149    0.89738    0.08699    1.000
    N4228    N        0.58529    0.89426    0.04868    1.000
    Si4229   Si       0.72683    0.92555    0.06509    1.000
    N4230    N        0.63350    0.92259    0.11237    1.000
    Si4231   Si       0.65150    0.93760    0.07557    1.000
    N4232    N        0.65299    0.90440    0.04531    1.000
    Si4233   Si       0.68764    0.90043    0.01683    1.000
    N4234    N        0.71726    0.88733    0.04640    1.000
    N4235    N        0.54298    0.93463    0.17231    1.000
    Si4236   Si       0.50358    0.92271    0.18696    1.000
    Si4237   Si       0.57591    0.92980    0.20314    1.000
    N4238    N        0.56985    0.89392    0.22911    1.000
    N4239    N        0.61443    0.92609    0.18326    1.000
    Si4240   Si       0.64236    0.89376    0.19010    1.000
    Si4241   Si       0.71475    0.91794    0.21984    1.000
    N4242    N        0.68124    0.90880    0.19842    1.000
    N4243    N        0.56902    0.91368    0.29661    1.000
    N4244    N        0.51689    0.91734    0.34398    1.000
    Si4245   Si       0.54238    0.92698    0.26459    1.000
    N4246    N        0.50922    0.89858    0.26830    1.000
    Si4247   Si       0.55224    0.94504    0.32428    1.000
    N4248    N        0.62883    0.91842    0.26311    1.000
    N4249    N        0.65636    0.92057    0.31622    1.000
    Si4250   Si       0.68307    0.93197    0.34833    1.000
    Si4251   Si       0.67076    0.91123    0.27524    1.000
    N4252    N        0.70664    0.93189    0.26059    1.000
    N4253    N        0.71588    0.90137    0.35647    1.000
    Si4254   Si       0.62194    0.94490    0.30017    1.000
    N4255    N        0.53663    0.90980    0.41248    1.000
    Si4256   Si       0.50412    0.91163    0.44161    1.000
    N4257    N        0.49545    0.94821    0.46291    1.000
    Si4258   Si       0.55353    0.95032    0.40088    1.000
    N4259    N        0.58259    0.88981    0.47660    1.000
    Si4260   Si       0.63061    0.92686    0.41349    1.000
    Si4261   Si       0.70828    0.89521    0.46422    1.000
    N4262    N        0.71493    0.91040    0.42360    1.000
    N4263    N        0.64388    0.93102    0.45467    1.000
    N4264    N        0.66128    0.93927    0.38439    1.000
    N4265    N        0.70484    0.92954    0.48854    1.000
    Si4266   Si       0.61978    0.91555    0.48620    1.000
    Si4267   Si       0.73331    0.95185    0.42188    1.000
    N4268    N        0.52451    0.90846    0.53012    1.000
    N4269    N        0.53034    0.92951    0.60318    1.000
    Si4270   Si       0.54821    0.92647    0.56273    1.000
    N4271    N        0.58493    0.89946    0.56226    1.000
    N4272    N        0.60305    0.94900    0.51111    1.000
    Si4273   Si       0.50548    0.89095    0.60663    1.000
    Si4274   Si       0.62841    0.90849    0.55523    1.000
    Si4275   Si       0.67981    0.89894    0.61113    1.000
    Si4276   Si       0.72427    0.94483    0.52491    1.000
    N4277    N        0.69251    0.94131    0.60684    1.000
    N4278    N        0.63072    0.94757    0.57328    1.000
    N4279    N        0.63923    0.89110    0.51736    1.000
    N4280    N        0.53723    0.92889    0.68835    1.000
    N4281    N        0.60324    0.91964    0.66664    1.000
    Si4282   Si       0.57460    0.90654    0.69862    1.000
    N4283    N        0.58051    0.90554    0.74225    1.000
    Si4284   Si       0.51729    0.89172    0.68292    1.000
    Si4285   Si       0.69259    0.91271    0.69038    1.000
    N4286    N        0.71990    0.93944    0.67167    1.000
    N4287    N        0.66993    0.90095    0.65509    1.000
    N4288    N        0.66932    0.93772    0.72222    1.000
    Si4289   Si       0.55484    0.92086    0.77209    1.000
    N4290    N        0.59843    0.92538    0.84076    1.000
    N4291    N        0.51595    0.94078    0.76550    1.000
    Si4292   Si       0.67248    0.91685    0.76334    1.000
    N4293    N        0.71302    0.90309    0.77805    1.000
    N4294    N        0.65010    0.94474    0.78765    1.000
    N4295    N        0.71420    0.89599    0.85752    1.000
    Si4296   Si       0.49674    0.93395    0.98341    1.000
    Si4297   Si       0.60595    0.91606    0.96068    1.000
    N4298    N        0.51955    0.92041    0.90512    1.000
    N4299    N        0.58806    0.93900    0.92464    1.000
    Si4300   Si       0.60291    0.92028    0.88710    1.000
    N4301    N        0.57205    0.89638    0.97792    1.000
    N4302    N        0.69475    0.93908    0.99377    1.000
    N4303    N        0.64598    0.92617    0.89089    1.000
    Si4304   Si       0.73739    0.94207    0.99139    1.000
    N4305    N        0.62736    0.93910    0.98980    1.000
    Si4306   Si       0.72816    0.91127    0.89528    1.000
    N4307    N        0.70014    0.89341    0.92406    1.000
    Si4308   Si       0.57852    0.96487    0.06514    1.000
    N4309    N        0.56757    0.96054    0.02344    1.000
    Si4310   Si       0.52351    0.00120    0.08838    1.000
    N4311    N        0.56367    0.00627    0.07078    1.000
    N4312    N        0.49127    0.97976    0.06710    1.000
    Si4313   Si       0.61430    0.97285    0.01413    1.000
    N4314    N        0.62060    0.96450    0.05972    1.000
    Si4315   Si       0.69290    0.97601    0.11741    1.000
    N4316    N        0.65550    0.99683    0.00696    1.000
    N4317    N        0.69389    0.94888    0.08145    1.000
    N4318    N        0.52249    0.98480    0.12880    1.000
    Si4319   Si       0.55591    0.00159    0.23413    1.000
    N4320    N        0.59058    0.97689    0.14581    1.000
    N4321    N        0.55922    0.95803    0.23488    1.000
    Si4322   Si       0.55237    0.95515    0.13549    1.000
    N4323    N        0.72877    0.95723    0.20835    1.000
    N4324    N        0.65873    0.97929    0.14393    1.000
    N4325    N        0.73064    0.97314    0.14022    1.000
    Si4326   Si       0.73053    0.98868    0.18117    1.000
    Si4327   Si       0.62568    0.95028    0.14594    1.000
    N4328    N        0.59211    0.97005    0.32195    1.000
    N4329    N        0.54538    0.97148    0.36180    1.000
    N4330    N        0.52343    0.95959    0.29351    1.000
    Si4331   Si       0.49985    0.99312    0.28320    1.000
    Si4332   Si       0.51141    0.99953    0.35666    1.000
    Si4333   Si       0.58354    0.00693    0.34621    1.000
    N4334    N        0.64798    0.98060    0.29276    1.000
    Si4335   Si       0.68907    0.99192    0.30397    1.000
    N4336    N        0.70924    0.96642    0.33456    1.000
    N4337    N        0.70836    0.00390    0.26429    1.000
    Si4338   Si       0.72957    0.96977    0.25001    1.000
    Si4339   Si       0.58819    0.99479    0.42289    1.000
    Si4340   Si       0.52246    0.98573    0.46464    1.000
    N4341    N        0.54526    0.98213    0.42844    1.000
    Si4342   Si       0.59274    0.98956    0.49736    1.000
    N4343    N        0.59674    0.95272    0.40921    1.000
    N4344    N        0.54873    0.98638    0.49736    1.000
    N4345    N        0.70211    0.97918    0.43392    1.000
    Si4346   Si       0.67875    0.95750    0.46520    1.000
    N4347    N        0.65892    0.99025    0.48663    1.000
    N4348    N        0.56065    0.96789    0.56426    1.000
    Si4349   Si       0.53395    0.99295    0.53892    1.000
    Si4350   Si       0.60085    0.96902    0.55102    1.000
    N4351    N        0.51114    0.99988    0.58796    1.000
    N4352    N        0.49344    0.97525    0.53111    1.000
    Si4353   Si       0.53838    0.97212    0.60939    1.000
    N4354    N        0.61053    0.00848    0.53228    1.000
    Si4355   Si       0.66391    0.97014    0.59099    1.000
    N4356    N        0.68948    0.96139    0.54356    1.000
    Si4357   Si       0.66916    0.99624    0.52823    1.000
    N4358    N        0.57743    0.97961    0.63146    1.000
    N4359    N        0.54610    0.98666    0.71878    1.000
    N4360    N        0.51285    0.98219    0.64715    1.000
    Si4361   Si       0.51876    0.96781    0.68903    1.000
    Si4362   Si       0.60980    0.96029    0.65461    1.000
    N4363    N        0.61382    0.98438    0.69234    1.000
    Si4364   Si       0.57980    0.01066    0.70181    1.000
    Si4365   Si       0.72795    0.94769    0.62941    1.000
    Si4366   Si       0.65238    0.97641    0.71141    1.000
    N4367    N        0.64480    0.98024    0.63105    1.000
    Si4368   Si       0.72372    0.99405    0.67717    1.000
    N4369    N        0.67893    0.00105    0.68604    1.000
    N4370    N        0.65204    0.00578    0.74735    1.000
    Si4371   Si       0.54013    0.97972    0.76074    1.000
    N4372    N        0.57482    0.96012    0.78051    1.000
    Si4373   Si       0.60926    0.95213    0.80607    1.000
    N4374    N        0.62508    0.99401    0.81225    1.000
    Si4375   Si       0.66060    0.98761    0.78647    1.000
    N4376    N        0.69525    0.00725    0.80489    1.000
    Si4377   Si       0.70432    0.00610    0.84781    1.000
    N4378    N        0.67181    0.99146    0.87220    1.000
    N4379    N        0.52772    0.95918    0.96516    1.000
    N4380    N        0.59284    0.99306    0.97416    1.000
    Si4381   Si       0.49841    0.99992    0.89633    1.000
    Si4382   Si       0.54978    0.98491    0.99134    1.000
    N4383    N        0.53987    0.99132    0.90262    1.000
    N4384    N        0.60436    0.00576    0.90361    1.000
    Si4385   Si       0.60903    0.97863    0.93618    1.000
    Si4386   Si       0.54403    0.95120    0.92341    1.000
    Si4387   Si       0.67263    0.95954    0.90180    1.000
    N4388    N        0.71601    0.95286    0.90273    1.000
    N4389    N        0.65312    0.97496    0.93848    1.000
    Si4390   Si       0.66354    0.96449    0.98012    1.000
    Si4391   Si       0.73989    0.98239    0.92320    1.000
    N4392    N        0.81507    0.04396    0.08586    1.000
    Si4393   Si       0.76047    0.05025    0.01925    1.000
    Si4394   Si       0.85482    0.02215    0.08097    1.000
    Si4395   Si       0.74477    0.02517    0.08910    1.000
    N4396    N        0.75503    0.05071    0.12211    1.000
    N4397    N        0.74171    0.05279    0.05668    1.000
    N4398    N        0.77302    0.00733    0.01799    1.000
    N4399    N        0.86815    0.01135    0.04053    1.000
    Si4400   Si       0.87166    0.04547    0.01414    1.000
    Si4401   Si       0.92841    0.05106    0.10082    1.000
    N4402    N        0.88335    0.04722    0.10296    1.000
    N4403    N        0.97694    0.03458    0.02393    1.000
    N4404    N        0.97758    0.04593    0.09234    1.000
    N4405    N        0.91281    0.04862    0.00159    1.000
    Si4406   Si       0.94587    0.06445    0.02377    1.000
    Si4407   Si       0.79973    0.04765    0.12600    1.000
    N4408    N        0.82362    0.04750    0.21563    1.000
    N4409    N        0.75753    0.02161    0.19973    1.000
    Si4410   Si       0.80022    0.01614    0.19890    1.000
    N4411    N        0.81111    0.01577    0.15393    1.000
    Si4412   Si       0.91991    0.04291    0.16530    1.000
    N4413    N        0.93598    0.01607    0.13098    1.000
    Si4414   Si       0.95136    0.01688    0.21241    1.000
    N4415    N        0.95465    0.05453    0.19025    1.000
    N4416    N        0.88039    0.06169    0.17027    1.000
    N4417    N        0.81540    0.02163    0.27995    1.000
    Si4418   Si       0.82995    0.05623    0.25672    1.000
    Si4419   Si       0.80385    0.01765    0.32381    1.000
    N4420    N        0.80434    0.06145    0.33154    1.000
    Si4421   Si       0.84129    0.05726    0.35749    1.000
    N4422    N        0.84062    0.01213    0.34818    1.000
    Si4423   Si       0.75486    0.03567    0.37389    1.000
    Si4424   Si       0.89365    0.05489    0.30644    1.000
    N4425    N        0.93499    0.02855    0.25088    1.000
    N4426    N        0.89962    0.01162    0.30740    1.000
    Si4427   Si       0.95474    0.06345    0.26652    1.000
    N4428    N        0.88191    0.06659    0.34739    1.000
    Si4429   Si       0.80676    0.03328    0.49037    1.000
    N4430    N        0.77922    0.02138    0.40695    1.000
    N4431    N        0.82900    0.03211    0.45236    1.000
    Si4432   Si       0.80660    0.05295    0.42337    1.000
    N4433    N        0.76271    0.03139    0.49416    1.000
    Si4434   Si       0.90945    0.05752    0.38161    1.000
    N4435    N        0.89850    0.01451    0.38417    1.000
    Si4436   Si       0.95653    0.04043    0.46220    1.000
    Si4437   Si       0.84797    0.04103    0.59373    1.000
    N4438    N        0.80478    0.02930    0.53800    1.000
    N4439    N        0.80482    0.03703    0.60622    1.000
    Si4440   Si       0.76127    0.01651    0.53614    1.000
    N4441    N        0.74433    0.03234    0.57202    1.000
    Si4442   Si       0.77241    0.06119    0.59200    1.000
    N4443    N        0.97086    0.05509    0.59174    1.000
    Si4444   Si       0.96535    0.01304    0.59133    1.000
    N4445    N        0.92985    0.03973    0.49767    1.000
    N4446    N        0.80435    0.01165    0.66856    1.000
    N4447    N        0.84934    0.06076    0.69730    1.000
    Si4448   Si       0.84319    0.02853    0.66642    1.000
    N4449    N        0.78272    0.03072    0.73101    1.000
    Si4450   Si       0.74842    0.05186    0.71432    1.000
    Si4451   Si       0.88352    0.03635    0.71005    1.000
    N4452    N        0.86614    0.04734    0.63271    1.000
    Si4453   Si       0.94693    0.05421    0.71461    1.000
    N4454    N        0.96274    0.01564    0.72357    1.000
    N4455    N        0.91544    0.05359    0.68457    1.000
    N4456    N        0.82314    0.03512    0.79457    1.000
    Si4457   Si       0.75436    0.04628    0.84356    1.000
    N4458    N        0.75708    0.04432    0.79948    1.000
    Si4459   Si       0.78625    0.02592    0.77480    1.000
    N4460    N        0.79232    0.05221    0.86921    1.000
    Si4461   Si       0.82514    0.02849    0.87126    1.000
    Si4462   Si       0.84054    0.06830    0.81545    1.000
    N4463    N        0.85924    0.04812    0.85063    1.000
    Si4464   Si       0.90113    0.03637    0.85164    1.000
    N4465    N        0.91891    0.03784    0.81211    1.000
    Si4466   Si       0.90300    0.05506    0.77659    1.000
    Si4467   Si       0.96063    0.02845    0.81807    1.000
    N4468    N        0.89086    0.02229    0.74953    1.000
    N4469    N        0.97865    0.06536    0.83319    1.000
    Si4470   Si       0.85462    0.04650    0.93782    1.000
    N4471    N        0.84623    0.04998    0.98051    1.000
    N4472    N        0.78157    0.04014    0.96287    1.000
    N4473    N        0.84066    0.01197    0.90979    1.000
    Si4474   Si       0.74217    0.05412    0.95105    1.000
    Si4475   Si       0.92947    0.04124    0.96033    1.000
    N4476    N        0.89540    0.03183    0.93390    1.000
    N4477    N        0.92564    0.06188    0.87697    1.000
    N4478    N        0.95948    0.07061    0.94819    1.000
    Si4479   Si       0.81882    0.08138    0.05859    1.000
    N4480    N        0.85916    0.07726    0.04248    1.000
    N4481    N        0.79515    0.07479    0.02273    1.000
    N4482    N        0.80586    0.11919    0.07806    1.000
    Si4483   Si       0.80481    0.11927    0.12261    1.000
    N4484    N        0.87810    0.11285    0.10551    1.000
    Si4485   Si       0.89077    0.09778    0.06394    1.000
    N4486    N        0.96310    0.10236    0.01270    1.000
    N4487    N        0.92746    0.07156    0.06207    1.000
    N4488    N        0.97680    0.11988    0.10901    1.000
    N4489    N        0.83394    0.11130    0.19986    1.000
    N4490    N        0.82625    0.08053    0.13785    1.000
    Si4491   Si       0.83947    0.07357    0.18280    1.000
    Si4492   Si       0.80855    0.12767    0.23598    1.000
    N4493    N        0.77430    0.12530    0.15011    1.000
    Si4494   Si       0.94474    0.11783    0.13786    1.000
    N4495    N        0.95301    0.09796    0.24128    1.000
    Si4496   Si       0.87308    0.07789    0.13045    1.000
    N4497    N        0.92907    0.07836    0.13577    1.000
    Si4498   Si       0.97003    0.09290    0.20129    1.000
    N4499    N        0.80698    0.09268    0.26354    1.000
    Si4500   Si       0.80069    0.09535    0.30681    1.000
    N4501    N        0.76515    0.11468    0.31931    1.000
    N4502    N        0.83725    0.11621    0.31869    1.000
    Si4503   Si       0.74133    0.10844    0.35496    1.000
    Si4504   Si       0.86123    0.11472    0.28044    1.000
    Si4505   Si       0.94178    0.09868    0.33793    1.000
    N4506    N        0.93398    0.07228    0.30464    1.000
    N4507    N        0.97744    0.11880    0.32449    1.000
    N4508    N        0.86843    0.07117    0.27446    1.000
    N4509    N        0.94956    0.07448    0.37296    1.000
    N4510    N        0.83344    0.07198    0.39560    1.000
    N4511    N        0.75418    0.07875    0.38349    1.000
    N4512    N        0.84654    0.11707    0.45263    1.000
    Si4513   Si       0.80905    0.10318    0.47055    1.000
    N4514    N        0.78245    0.08121    0.44452    1.000
    Si4515   Si       0.74203    0.08327    0.42616    1.000
    Si4516   Si       0.85807    0.10317    0.41363    1.000
    N4517    N        0.90870    0.10384    0.47595    1.000
    N4518    N        0.89676    0.08357    0.41291    1.000
    Si4519   Si       0.92684    0.10450    0.43535    1.000
    Si4520   Si       0.98448    0.07630    0.40173    1.000
    N4521    N        0.96304    0.07813    0.44044    1.000
    N4522    N        0.78533    0.08947    0.55963    1.000
    N4523    N        0.85348    0.07659    0.56851    1.000
    N4524    N        0.82360    0.07428    0.49826    1.000
    Si4525   Si       0.81973    0.07023    0.54140    1.000
    Si4526   Si       0.92857    0.08150    0.50837    1.000
    N4527    N        0.91605    0.09159    0.55126    1.000
    Si4528   Si       0.87908    0.11206    0.55995    1.000
    Si4529   Si       0.94325    0.08859    0.58320    1.000
    N4530    N        0.96946    0.09835    0.50875    1.000
    N4531    N        0.97789    0.11410    0.57553    1.000
    N4532    N        0.92145    0.09256    0.61876    1.000
    N4533    N        0.75991    0.07743    0.63076    1.000
    Si4534   Si       0.76967    0.10585    0.66306    1.000
    Si4535   Si       0.84959    0.10607    0.69213    1.000
    N4536    N        0.75613    0.09524    0.70548    1.000
    N4537    N        0.80987    0.11660    0.67678    1.000
    Si4538   Si       0.75664    0.12571    0.73555    1.000
    N4539    N        0.86635    0.12222    0.72853    1.000
    N4540    N        0.87911    0.11194    0.66003    1.000
    N4541    N        0.98323    0.07426    0.70222    1.000
    N4542    N        0.98192    0.11726    0.65064    1.000
    Si4543   Si       0.89653    0.07189    0.64894    1.000
    Si4544   Si       0.98205    0.11592    0.69243    1.000
    N4545    N        0.81417    0.10029    0.82595    1.000
    N4546    N        0.74962    0.09157    0.84912    1.000
    Si4547   Si       0.79106    0.09529    0.86128    1.000
    N4548    N        0.78305    0.12000    0.76962    1.000
    N4549    N        0.87090    0.08005    0.78802    1.000
    Si4550   Si       0.94161    0.11470    0.75704    1.000
    N4551    N        0.89264    0.12128    0.85780    1.000
    Si4552   Si       0.86951    0.12037    0.77292    1.000
    N4553    N        0.98217    0.11495    0.77470    1.000
    N4554    N        0.93297    0.07235    0.75072    1.000
    Si4555   Si       0.82349    0.11626    0.92020    1.000
    N4556    N        0.80885    0.10970    0.96226    1.000
    N4557    N        0.85254    0.08162    0.91091    1.000
    Si4558   Si       0.80777    0.07213    0.98040    1.000
    Si4559   Si       0.89224    0.08889    0.88944    1.000
    N4560    N        0.91006    0.11146    0.92303    1.000
    N4561    N        0.96879    0.11098    0.88859    1.000
    Si4562   Si       0.95232    0.11012    0.92718    1.000
    Si4563   Si       0.97154    0.06860    0.87625    1.000
    N4564    N        0.77649    0.15685    0.01890    1.000
    Si4565   Si       0.80752    0.15424    0.04995    1.000
    N4566    N        0.83762    0.14916    0.01590    1.000
    N4567    N        0.76876    0.17835    0.11377    1.000
    Si4568   Si       0.88097    0.15526    0.01481    1.000
    N4569    N        0.90112    0.13765    0.04920    1.000
    Si4570   Si       0.91121    0.17664    0.06427    1.000
    N4571    N        0.95430    0.17944    0.06916    1.000
    N4572    N        0.83369    0.15058    0.13966    1.000
    Si4573   Si       0.75563    0.16635    0.21736    1.000
    Si4574   Si       0.83535    0.15103    0.18247    1.000
    N4575    N        0.79562    0.16358    0.19975    1.000
    Si4576   Si       0.78474    0.17234    0.15670    1.000
    N4577    N        0.86184    0.18431    0.19449    1.000
    N4578    N        0.74173    0.18487    0.17137    1.000
    Si4579   Si       0.93133    0.15798    0.18783    1.000
    N4580    N        0.91196    0.14598    0.14949    1.000
    N4581    N        0.96612    0.12914    0.17674    1.000
    N4582    N        0.91208    0.15568    0.22516    1.000
    Si4583   Si       0.87539    0.15246    0.12306    1.000
    Si4584   Si       0.87330    0.17444    0.23386    1.000
    Si4585   Si       0.74814    0.14060    0.28850    1.000
    Si4586   Si       0.84229    0.14733    0.34678    1.000
    N4587    N        0.84539    0.14541    0.25221    1.000
    N4588    N        0.76977    0.14440    0.25304    1.000
    N4589    N        0.81095    0.17325    0.36415    1.000
    N4590    N        0.74297    0.15043    0.37106    1.000
    N4591    N        0.73943    0.17898    0.30382    1.000
    N4592    N        0.86296    0.17789    0.32199    1.000
    Si4593   Si       0.90200    0.15911    0.31635    1.000
    N4594    N        0.96720    0.15977    0.26910    1.000
    Si4595   Si       0.93408    0.13481    0.25596    1.000
    N4596    N        0.91762    0.13482    0.35162    1.000
    N4597    N        0.97134    0.17703    0.35976    1.000
    N4598    N        0.90099    0.13084    0.28502    1.000
    Si4599   Si       0.82548    0.16924    0.40541    1.000
    Si4600   Si       0.78974    0.17113    0.47223    1.000
    Si4601   Si       0.75286    0.15484    0.41230    1.000
    N4602    N        0.78980    0.16174    0.42999    1.000
    N4603    N        0.85505    0.13844    0.39107    1.000
    N4604    N        0.83042    0.17874    0.48837    1.000
    N4605    N        0.78516    0.13208    0.49379    1.000
    Si4606   Si       0.92759    0.17988    0.45124    1.000
    Si4607   Si       0.93358    0.16346    0.37933    1.000
    N4608    N        0.93308    0.14773    0.41970    1.000
    N4609    N        0.89346    0.16747    0.47396    1.000
    Si4610   Si       0.87513    0.12873    0.48327    1.000
    N4611    N        0.80782    0.15768    0.55454    1.000
    Si4612   Si       0.84027    0.16609    0.52931    1.000
    Si4613   Si       0.78176    0.12747    0.53894    1.000
    N4614    N        0.86332    0.12967    0.52526    1.000
    N4615    N        0.94072    0.16122    0.53581    1.000
    N4616    N        0.88486    0.14307    0.59363    1.000
    Si4617   Si       0.97281    0.13414    0.53580    1.000
    Si4618   Si       0.80378    0.15914    0.68155    1.000
    N4619    N        0.77510    0.15974    0.71469    1.000
    Si4620   Si       0.75820    0.17826    0.63102    1.000
    N4621    N        0.74501    0.14070    0.64793    1.000
    N4622    N        0.84205    0.16910    0.69604    1.000
    N4623    N        0.79666    0.18448    0.64782    1.000
    Si4624   Si       0.98234    0.16090    0.63727    1.000
    Si4625   Si       0.87686    0.16370    0.72079    1.000
    N4626    N        0.93814    0.16232    0.63041    1.000
    N4627    N        0.90866    0.17920    0.69458    1.000
    N4628    N        0.94791    0.13078    0.71720    1.000
    Si4629   Si       0.90712    0.13158    0.62969    1.000
    N4630    N        0.98208    0.18295    0.67713    1.000
    Si4631   Si       0.95053    0.17531    0.70862    1.000
    N4632    N        0.78190    0.16576    0.82521    1.000
    N4633    N        0.84530    0.14991    0.78977    1.000
    Si4634   Si       0.80501    0.13637    0.80129    1.000
    Si4635   Si       0.91292    0.14452    0.82899    1.000
    N4636    N        0.95392    0.16433    0.83853    1.000
    Si4637   Si       0.98248    0.14346    0.86308    1.000
    N4638    N        0.91296    0.13165    0.78618    1.000
    N4639    N        0.97367    0.18110    0.74795    1.000
    Si4640   Si       0.79438    0.16936    0.86695    1.000
    N4641    N        0.85100    0.15020    0.92240    1.000
    Si4642   Si       0.80518    0.14563    0.98638    1.000
    N4643    N        0.79579    0.17845    0.95719    1.000
    Si4644   Si       0.75732    0.18172    0.93655    1.000
    N4645    N        0.79791    0.12760    0.88704    1.000
    N4646    N        0.90033    0.18253    0.91099    1.000
    N4647    N        0.97352    0.14013    0.95179    1.000
    N4648    N        0.89822    0.15104    0.97639    1.000
    Si4649   Si       0.89058    0.14779    0.93517    1.000
    N4650    N        0.77471    0.22657    0.01791    1.000
    N4651    N        0.81205    0.19392    0.06811    1.000
    Si4652   Si       0.79844    0.21011    0.10758    1.000
    Si4653   Si       0.79932    0.23285    0.05331    1.000
    Si4654   Si       0.75135    0.18851    0.00806    1.000
    Si4655   Si       0.97077    0.21165    0.04455    1.000
    N4656    N        0.89502    0.19586    0.02890    1.000
    Si4657   Si       0.89757    0.22972    0.11511    1.000
    N4658    N        0.97461    0.20176    0.00324    1.000
    N4659    N        0.94063    0.23561    0.11701    1.000
    Si4660   Si       0.88729    0.23071    0.00004    1.000
    N4661    N        0.89009    0.18761    0.10158    1.000
    Si4662   Si       0.84600    0.21795    0.17363    1.000
    N4663    N        0.80954    0.20932    0.15098    1.000
    Si4664   Si       0.96651    0.21476    0.14579    1.000
    Si4665   Si       0.98372    0.22066    0.20883    1.000
    N4666    N        0.95081    0.19472    0.18045    1.000
    N4667    N        0.95668    0.22873    0.24131    1.000
    N4668    N        0.88032    0.23900    0.15479    1.000
    Si4669   Si       0.80059    0.21271    0.34949    1.000
    N4670    N        0.80842    0.22264    0.30999    1.000
    N4671    N        0.75811    0.22092    0.35405    1.000
    Si4672   Si       0.84970    0.21646    0.29758    1.000
    N4673    N        0.82198    0.24197    0.37073    1.000
    N4674    N        0.86360    0.21067    0.25697    1.000
    Si4675   Si       0.91120    0.22393    0.33414    1.000
    Si4676   Si       0.95661    0.20242    0.27456    1.000
    N4677    N        0.92473    0.19760    0.30260    1.000
    Si4678   Si       0.98011    0.21619    0.34130    1.000
    N4679    N        0.87533    0.24306    0.31964    1.000
    N4680    N        0.84495    0.20276    0.42628    1.000
    N4681    N        0.76576    0.20840    0.48002    1.000
    N4682    N        0.86072    0.23769    0.48724    1.000
    Si4683   Si       0.84375    0.24145    0.40760    1.000
    Si4684   Si       0.98730    0.22731    0.46845    1.000
    Si4685   Si       0.86183    0.19906    0.46693    1.000
    N4686    N        0.96725    0.18883    0.46557    1.000
    Si4687   Si       0.91144    0.23486    0.40243    1.000
    N4688    N        0.91268    0.20228    0.37391    1.000
    N4689    N        0.90945    0.21989    0.44184    1.000
    N4690    N        0.79793    0.22365    0.53994    1.000
    N4691    N        0.81540    0.22347    0.59729    1.000
    Si4692   Si       0.79490    0.19537    0.57229    1.000
    Si4693   Si       0.77856    0.24050    0.50553    1.000
    N4694    N        0.86453    0.19553    0.55056    1.000
    N4695    N        0.75683    0.18482    0.58887    1.000
    N4696    N        0.98009    0.20770    0.55750    1.000
    Si4697   Si       0.87475    0.23205    0.52835    1.000
    Si4698   Si       0.93613    0.20287    0.54866    1.000
    N4699    N        0.91573    0.20837    0.58751    1.000
    N4700    N        0.91707    0.22837    0.51624    1.000
    Si4701   Si       0.87819    0.18628    0.59367    1.000
    Si4702   Si       0.75324    0.19659    0.72675    1.000
    Si4703   Si       0.82721    0.21385    0.63698    1.000
    N4704    N        0.76761    0.23184    0.70702    1.000
    Si4705   Si       0.76916    0.24123    0.66423    1.000
    Si4706   Si       0.93875    0.20604    0.62294    1.000
    Si4707   Si       0.89022    0.20976    0.66913    1.000
    N4708    N        0.98238    0.20725    0.62194    1.000
    N4709    N        0.86858    0.19740    0.63397    1.000
    N4710    N        0.93896    0.22948    0.72166    1.000
    N4711    N        0.92325    0.23296    0.65241    1.000
    Si4712   Si       0.89724    0.22717    0.73484    1.000
    N4713    N        0.87144    0.23370    0.69916    1.000
    N4714    N        0.84646    0.22759    0.80106    1.000
    Si4715   Si       0.83008    0.22605    0.84285    1.000
    N4716    N        0.78784    0.23201    0.83739    1.000
    Si4717   Si       0.76496    0.20344    0.81094    1.000
    N4718    N        0.76635    0.21111    0.76801    1.000
    N4719    N        0.83427    0.18852    0.86433    1.000
    N4720    N        0.94428    0.22800    0.78987    1.000
    Si4721   Si       0.93874    0.20273    0.82685    1.000
    N4722    N        0.95881    0.22974    0.85629    1.000
    Si4723   Si       0.96750    0.22386    0.75406    1.000
    N4724    N        0.88248    0.19088    0.75325    1.000
    Si4725   Si       0.86640    0.18913    0.79297    1.000
    N4726    N        0.89776    0.18512    0.82331    1.000
    N4727    N        0.84859    0.22283    0.92175    1.000
    Si4728   Si       0.81972    0.21557    0.95283    1.000
    N4729    N        0.84504    0.23000    0.98788    1.000
    N4730    N        0.77325    0.19287    0.89837    1.000
    N4731    N        0.73853    0.20683    0.96899    1.000
    Si4732   Si       0.85829    0.18737    0.89940    1.000
    Si4733   Si       0.98328    0.21609    0.89067    1.000
    Si4734   Si       0.92065    0.21825    0.92464    1.000
    N4735    N        0.91408    0.22593    0.96737    1.000
    Si4736   Si       0.95617    0.22986    0.97325    1.000
    N4737    N        0.96435    0.21362    0.93107    1.000
    N4738    N        0.82786    0.26146    0.04020    1.000
    N4739    N        0.78452    0.24824    0.09375    1.000
    Si4740   Si       0.77000    0.27972    0.11913    1.000
    Si4741   Si       0.86665    0.27633    0.05369    1.000
    N4742    N        0.95784    0.25254    0.05170    1.000
    N4743    N        0.89817    0.26433    0.02337    1.000
    Si4744   Si       0.96295    0.26662    0.09343    1.000
    Si4745   Si       0.93951    0.27632    0.02004    1.000
    N4746    N        0.87888    0.25568    0.08781    1.000
    N4747    N        0.83884    0.24797    0.20293    1.000
    N4748    N        0.78556    0.28581    0.15972    1.000
    Si4749   Si       0.82207    0.28485    0.18397    1.000
    N4750    N        0.98469    0.24530    0.17045    1.000
    Si4751   Si       0.96614    0.28346    0.17546    1.000
    N4752    N        0.90333    0.26483    0.22000    1.000
    Si4753   Si       0.93905    0.26911    0.24473    1.000
    Si4754   Si       0.89205    0.27610    0.17752    1.000
    N4755    N        0.96611    0.29442    0.21698    1.000
    N4756    N        0.92595    0.29257    0.15786    1.000
    Si4757   Si       0.86496    0.24877    0.23805    1.000
    N4758    N        0.84749    0.27534    0.26625    1.000
    N4759    N        0.76504    0.28210    0.33304    1.000
    N4760    N        0.77545    0.26405    0.26802    1.000
    Si4761   Si       0.80839    0.28755    0.25837    1.000
    Si4762   Si       0.85346    0.26553    0.35069    1.000
    Si4763   Si       0.74630    0.25963    0.36972    1.000
    N4764    N        0.83624    0.30041    0.33363    1.000
    Si4765   Si       0.76824    0.24503    0.30610    1.000
    N4766    N        0.94842    0.28918    0.28518    1.000
    Si4767   Si       0.95308    0.28729    0.32833    1.000
    N4768    N        0.94768    0.24561    0.33882    1.000
    Si4769   Si       0.73837    0.29954    0.43148    1.000
    N4770    N        0.82534    0.27308    0.43168    1.000
    Si4771   Si       0.84501    0.27595    0.47123    1.000
    N4772    N        0.76388    0.28638    0.39809    1.000
    N4773    N        0.80288    0.27340    0.49431    1.000
    Si4774   Si       0.91578    0.24979    0.47497    1.000
    Si4775   Si       0.97194    0.27503    0.43033    1.000
    Si4776   Si       0.90822    0.29727    0.38789    1.000
    N4777    N        0.93681    0.26935    0.40553    1.000
    N4778    N        0.89091    0.28196    0.46073    1.000
    N4779    N        0.95926    0.26160    0.47273    1.000
    N4780    N        0.87850    0.26244    0.38653    1.000
    N4781    N        0.79794    0.28959    0.56785    1.000
    Si4782   Si       0.82053    0.25312    0.56541    1.000
    Si4783   Si       0.75982    0.29392    0.54731    1.000
    N4784    N        0.74359    0.26245    0.52055    1.000
    N4785    N        0.86247    0.26499    0.55412    1.000
    N4786    N        0.97472    0.27051    0.59871    1.000
    N4787    N        0.99450    0.29420    0.52923    1.000
    Si4788   Si       0.88650    0.30275    0.55416    1.000
    N4789    N        0.81440    0.24854    0.66131    1.000
    Si4790   Si       0.83499    0.25739    0.70365    1.000
    Si4791   Si       0.82289    0.29273    0.65194    1.000
    N4792    N        0.84410    0.29789    0.68916    1.000
    N4793    N        0.81921    0.25784    0.74452    1.000
    N4794    N        0.74725    0.27967    0.74495    1.000
    Si4795   Si       0.77699    0.24907    0.74629    1.000
    N4796    N        0.92524    0.28900    0.69810    1.000
    Si4797   Si       0.94298    0.25408    0.68366    1.000
    N4798    N        0.98797    0.25633    0.67414    1.000
    Si4799   Si       0.90847    0.29822    0.73629    1.000
    Si4800   Si       0.76953    0.26899    0.84381    1.000
    Si4801   Si       0.84845    0.26333    0.77662    1.000
    N4802    N        0.84057    0.29693    0.80439    1.000
    N4803    N        0.84541    0.25864    0.86457    1.000
    N4804    N        0.74327    0.27627    0.80976    1.000
    N4805    N        0.79239    0.30308    0.84914    1.000
    Si4806   Si       0.86420    0.29066    0.83980    1.000
    N4807    N        0.94045    0.30074    0.76878    1.000
    Si4808   Si       0.92631    0.26844    0.79314    1.000
    N4809    N        0.96342    0.28068    0.82354    1.000
    N4810    N        0.90109    0.27340    0.82698    1.000
    Si4811   Si       0.93150    0.26428    0.85797    1.000
    N4812    N        0.89000    0.26342    0.75915    1.000
    Si4813   Si       0.77092    0.28688    0.94743    1.000
    N4814    N        0.79423    0.24987    0.95736    1.000
    Si4815   Si       0.75129    0.24804    0.98536    1.000
    N4816    N        0.74734    0.27618    0.88201    1.000
    N4817    N        0.76914    0.28954    0.99204    1.000
    Si4818   Si       0.81717    0.26412    0.99829    1.000
    N4819    N        0.90751    0.24614    0.89355    1.000
    N4820    N        0.96239    0.27056    0.98311    1.000
    N4821    N        0.87430    0.29402    0.92679    1.000
    Si4822   Si       0.86710    0.25802    0.90394    1.000
    N4823    N        0.79331    0.33186    0.04142    1.000
    N4824    N        0.76863    0.32244    0.10640    1.000
    Si4825   Si       0.83474    0.33001    0.02434    1.000
    Si4826   Si       0.78929    0.34993    0.07974    1.000
    Si4827   Si       0.76720    0.33143    0.00560    1.000
    N4828    N        0.82693    0.36649    0.09354    1.000
    N4829    N        0.86019    0.31853    0.05726    1.000
    Si4830   Si       0.86805    0.35105    0.08383    1.000
    Si4831   Si       0.96870    0.33295    0.06198    1.000
    N4832    N        0.94800    0.31910    0.02777    1.000
    N4833    N        0.95455    0.31007    0.09558    1.000
    N4834    N        0.88820    0.34364    0.12060    1.000
    Si4835   Si       0.76532    0.30462    0.19508    1.000
    N4836    N        0.77042    0.34882    0.19055    1.000
    Si4837   Si       0.80120    0.34563    0.23329    1.000
    N4838    N        0.80226    0.30358    0.21936    1.000
    N4839    N        0.85952    0.30667    0.17567    1.000
    N4840    N        0.94443    0.35334    0.23996    1.000
    N4841    N        0.94962    0.36227    0.15104    1.000
    Si4842   Si       0.86709    0.34651    0.16176    1.000
    Si4843   Si       0.92954    0.32679    0.12838    1.000
    Si4844   Si       0.98205    0.33415    0.22417    1.000
    N4845    N        0.81455    0.32939    0.27560    1.000
    N4846    N        0.77531    0.34129    0.32661    1.000
    Si4847   Si       0.79825    0.31132    0.34959    1.000
    Si4848   Si       0.85117    0.30917    0.29347    1.000
    Si4849   Si       0.74041    0.31534    0.32244    1.000
    N4850    N        0.88183    0.33769    0.29110    1.000
    Si4851   Si       0.90837    0.34347    0.32668    1.000
    Si4852   Si       0.95406    0.33136    0.27737    1.000
    N4853    N        0.94445    0.35748    0.30862    1.000
    N4854    N        0.98666    0.30878    0.34561    1.000
    N4855    N        0.91677    0.30723    0.34704    1.000
    N4856    N        0.83992    0.32013    0.48118    1.000
    N4857    N        0.77541    0.32346    0.44972    1.000
    N4858    N        0.80856    0.33288    0.38610    1.000
    Si4859   Si       0.79683    0.31585    0.49026    1.000
    Si4860   Si       0.79830    0.30449    0.41667    1.000
    Si4861   Si       0.94872    0.33979    0.42856    1.000
    N4862    N        0.98407    0.31683    0.41721    1.000
    N4863    N        0.94251    0.32408    0.46821    1.000
    Si4864   Si       0.90182    0.31929    0.48101    1.000
    N4865    N        0.90959    0.33535    0.40804    1.000
    N4866    N        0.76591    0.32719    0.52078    1.000
    Si4867   Si       0.82450    0.32161    0.58338    1.000
    N4868    N        0.85553    0.33498    0.55761    1.000
    N4869    N        0.84753    0.30688    0.61920    1.000
    N4870    N        0.80649    0.35804    0.59746    1.000
    N4871    N        0.98372    0.33839    0.58775    1.000
    N4872    N        0.96977    0.35018    0.52246    1.000
    Si4873   Si       0.95317    0.30785    0.59999    1.000
    N4874    N        0.91061    0.30993    0.58925    1.000
    Si4875   Si       0.95876    0.30984    0.50639    1.000
    N4876    N        0.91469    0.30498    0.52212    1.000
    Si4877   Si       0.85372    0.33741    0.70330    1.000
    N4878    N        0.78806    0.31832    0.64999    1.000
    N4879    N        0.82301    0.35743    0.72808    1.000
    Si4880   Si       0.74459    0.31607    0.65198    1.000
    Si4881   Si       0.80191    0.35952    0.64142    1.000
    N4882    N        0.88732    0.33628    0.72921    1.000
    Si4883   Si       0.88446    0.32873    0.61896    1.000
    Si4884   Si       0.93338    0.32546    0.67633    1.000
    N4885    N        0.95874    0.31482    0.64306    1.000
    N4886    N        0.94705    0.35499    0.70464    1.000
    N4887    N        0.89781    0.34439    0.65843    1.000
    N4888    N        0.78060    0.33220    0.78258    1.000
    Si4889   Si       0.80863    0.32531    0.81607    1.000
    Si4890   Si       0.74670    0.30552    0.77946    1.000
    Si4891   Si       0.97046    0.31341    0.79764    1.000
    N4892    N        0.96038    0.34572    0.82401    1.000
    Si4893   Si       0.97120    0.32773    0.86304    1.000
    N4894    N        0.87391    0.32438    0.86558    1.000
    N4895    N        0.74196    0.34693    0.88193    1.000
    N4896    N        0.84777    0.35605    0.94026    1.000
    Si4897   Si       0.80554    0.35357    0.93588    1.000
    N4898    N        0.78842    0.31725    0.92159    1.000
    Si4899   Si       0.76848    0.31393    0.88324    1.000
    N4900    N        0.78841    0.35523    0.97525    1.000
    N4901    N        0.83633    0.30457    0.98999    1.000
    Si4902   Si       0.86577    0.32073    0.96058    1.000
    Si4903   Si       0.98734    0.30273    0.96952    1.000
    Si4904   Si       0.90162    0.31584    0.89846    1.000
    N4905    N        0.89586    0.33427    0.98673    1.000
    N4906    N        0.96292    0.33865    0.96260    1.000
    N4907    N        0.91178    0.35252    0.91957    1.000
    N4908    N        0.98008    0.35927    0.89274    1.000
    Si4909   Si       0.93620    0.34684    0.99575    1.000
    N4910    N        0.94009    0.30240    0.88070    1.000
    N4911    N        0.76092    0.38384    0.06928    1.000
    N4912    N        0.83633    0.37375    0.01709    1.000
    Si4913   Si       0.85584    0.40359    0.04187    1.000
    N4914    N        0.77200    0.41690    0.01231    1.000
    Si4915   Si       0.82375    0.39447    0.12630    1.000
    Si4916   Si       0.92794    0.39626    0.04587    1.000
    N4917    N        0.88879    0.38318    0.06292    1.000
    N4918    N        0.96557    0.37761    0.06068    1.000
    N4919    N        0.93135    0.38968    0.00224    1.000
    N4920    N        0.74126    0.40535    0.18190    1.000
    N4921    N        0.84014    0.36746    0.23037    1.000
    N4922    N        0.83157    0.37242    0.16326    1.000
    Si4923   Si       0.84950    0.39651    0.19929    1.000
    Si4924   Si       0.78699    0.38747    0.17557    1.000
    N4925    N        0.78328    0.40036    0.13594    1.000
    N4926    N        0.80568    0.41831    0.20246    1.000
    Si4927   Si       0.92681    0.39413    0.16841    1.000
    N4928    N        0.89024    0.37480    0.18537    1.000
    Si4929   Si       0.93539    0.39383    0.24058    1.000
    N4930    N        0.95039    0.41026    0.20169    1.000
    N4931    N        0.83352    0.38760    0.29721    1.000
    Si4932   Si       0.85514    0.39609    0.33527    1.000
    N4933    N        0.77216    0.40594    0.30971    1.000
    N4934    N        0.82447    0.40001    0.36453    1.000
    Si4935   Si       0.79397    0.36612    0.29511    1.000
    N4936    N        0.76943    0.36701    0.25654    1.000
    Si4937   Si       0.86302    0.36979    0.26675    1.000
    Si4938   Si       0.96513    0.39373    0.30719    1.000
    N4939    N        0.96175    0.41295    0.26921    1.000
    N4940    N        0.89614    0.39885    0.25877    1.000
    N4941    N        0.88268    0.36553    0.35486    1.000
    N4942    N        0.78309    0.38937    0.42113    1.000
    Si4943   Si       0.81783    0.37570    0.39983    1.000
    N4944    N        0.80459    0.37319    0.48637    1.000
    N4945    N        0.85382    0.40688    0.48568    1.000
    N4946    N        0.85084    0.37008    0.42832    1.000
    Si4947   Si       0.77403    0.36663    0.45611    1.000
    Si4948   Si       0.84735    0.36445    0.47236    1.000
    Si4949   Si       0.88537    0.36866    0.39753    1.000
    N4950    N        0.90369    0.40793    0.39606    1.000
    N4951    N        0.93242    0.41246    0.49156    1.000
    N4952    N        0.95919    0.38216    0.43067    1.000
    N4953    N        0.88848    0.35851    0.48653    1.000
    N4954    N        0.83108    0.39963    0.55255    1.000
    Si4955   Si       0.79522    0.39707    0.57982    1.000
    N4956    N        0.77127    0.40422    0.53904    1.000
    Si4957   Si       0.81341    0.40636    0.51313    1.000
    N4958    N        0.75486    0.40316    0.60074    1.000
    Si4959   Si       0.74937    0.36712    0.52342    1.000
    Si4960   Si       0.86373    0.37739    0.56700    1.000
    N4961    N        0.87691    0.37155    0.60842    1.000
    N4962    N        0.89838    0.39790    0.54747    1.000
    Si4963   Si       0.96547    0.39212    0.51244    1.000
    Si4964   Si       0.89147    0.39751    0.50445    1.000
    N4965    N        0.96282    0.41424    0.54957    1.000
    N4966    N        0.76699    0.38779    0.72525    1.000
    N4967    N        0.77798    0.38779    0.66455    1.000
    Si4968   Si       0.80942    0.38584    0.69777    1.000
    N4969    N        0.83805    0.36823    0.66795    1.000
    Si4970   Si       0.74346    0.37701    0.69045    1.000
    Si4971   Si       0.77462    0.42155    0.63457    1.000
    N4972    N        0.98789    0.41024    0.71982    1.000
    Si4973   Si       0.91650    0.36956    0.73329    1.000
    Si4974   Si       0.98596    0.37389    0.69854    1.000
    N4975    N        0.98468    0.37805    0.65267    1.000
    Si4976   Si       0.96971    0.41667    0.63417    1.000
    Si4977   Si       0.87633    0.38165    0.65048    1.000
    N4978    N        0.88910    0.40388    0.73126    1.000
    N4979    N        0.88146    0.42236    0.66688    1.000
    N4980    N        0.79533    0.40088    0.78065    1.000
    N4981    N        0.76431    0.40162    0.84602    1.000
    Si4982   Si       0.80116    0.40205    0.82295    1.000
    Si4983   Si       0.79080    0.36469    0.75504    1.000
    N4984    N        0.82331    0.36385    0.83045    1.000
    Si4985   Si       0.86281    0.36369    0.85012    1.000
    N4986    N        0.93739    0.39100    0.77070    1.000
    Si4987   Si       0.93558    0.38038    0.81468    1.000
    Si4988   Si       0.97844    0.40855    0.76177    1.000
    N4989    N        0.89481    0.37325    0.82406    1.000
    N4990    N        0.94285    0.41957    0.83410    1.000
    N4991    N        0.79090    0.38896    0.91313    1.000
    Si4992   Si       0.75698    0.38637    0.88468    1.000
    Si4993   Si       0.80368    0.39124    0.99547    1.000
    N4994    N        0.86342    0.39253    0.88235    1.000
    Si4995   Si       0.87850    0.38130    0.92341    1.000
    N4996    N        0.88967    0.41505    0.94939    1.000
    Si4997   Si       0.95444    0.36310    0.92752    1.000
    Si4998   Si       0.92911    0.41941    0.96932    1.000
    N4999    N        0.95656    0.40639    0.93725    1.000
    Si5000   Si       0.83931    0.45198    0.09192    1.000
    N5001    N        0.76216    0.46056    0.06420    1.000
    N5002    N        0.82392    0.42507    0.06184    1.000
    Si5003   Si       0.77835    0.42159    0.05527    1.000
    N5004    N        0.87435    0.43454    0.01666    1.000
    Si5005   Si       0.97862    0.44687    0.05540    1.000
    N5006    N        0.88129    0.46085    0.08422    1.000
    Si5007   Si       0.89848    0.45957    0.04436    1.000
    N5008    N        0.93583    0.43774    0.04947    1.000
    N5009    N        0.84462    0.43185    0.13038    1.000
    Si5010   Si       0.78979    0.45304    0.22074    1.000
    N5011    N        0.76095    0.46338    0.13342    1.000
    N5012    N        0.75094    0.46791    0.20446    1.000
    Si5013   Si       0.74679    0.42306    0.14090    1.000
    Si5014   Si       0.85972    0.47060    0.22624    1.000
    Si5015   Si       0.98264    0.43864    0.19015    1.000
    Si5016   Si       0.94639    0.45768    0.13933    1.000
    N5017    N        0.97995    0.43128    0.14578    1.000
    N5018    N        0.91316    0.42926    0.14746    1.000
    N5019    N        0.98463    0.46399    0.22931    1.000
    Si5020   Si       0.87589    0.44650    0.15649    1.000
    N5021    N        0.86798    0.43654    0.19905    1.000
    N5022    N        0.95943    0.48155    0.17537    1.000
    N5023    N        0.81468    0.45146    0.32412    1.000
    N5024    N        0.78820    0.44928    0.26331    1.000
    Si5025   Si       0.82083    0.43150    0.28503    1.000
    Si5026   Si       0.75089    0.43860    0.28787    1.000
    N5027    N        0.85492    0.45114    0.26566    1.000
    Si5028   Si       0.79196    0.42130    0.34547    1.000
    N5029    N        0.74053    0.47140    0.31863    1.000
    N5030    N        0.92176    0.46416    0.26786    1.000
    Si5031   Si       0.96382    0.45631    0.26636    1.000
    Si5032   Si       0.89345    0.43752    0.28157    1.000
    Si5033   Si       0.97665    0.45819    0.34085    1.000
    Si5034   Si       0.91289    0.42715    0.35818    1.000
    N5035    N        0.98245    0.47698    0.30113    1.000
    N5036    N        0.88505    0.42590    0.32383    1.000
    N5037    N        0.95012    0.42314    0.33728    1.000
    N5038    N        0.76255    0.43505    0.37460    1.000
    N5039    N        0.75854    0.45714    0.44203    1.000
    Si5040   Si       0.84836    0.45166    0.47850    1.000
    N5041    N        0.85413    0.45269    0.43447    1.000
    Si5042   Si       0.75424    0.42180    0.41530    1.000
    N5043    N        0.98776    0.43887    0.42443    1.000
    N5044    N        0.92620    0.45127    0.44429    1.000
    N5045    N        0.90563    0.46693    0.37903    1.000
    Si5046   Si       0.92264    0.45763    0.48763    1.000
    Si5047   Si       0.89398    0.44492    0.41670    1.000
    Si5048   Si       0.95693    0.41807    0.45372    1.000
    Si5049   Si       0.75953    0.44757    0.54186    1.000
    Si5050   Si       0.81906    0.46573    0.59520    1.000
    N5051    N        0.81053    0.42748    0.61209    1.000
    N5052    N        0.75465    0.47332    0.50725    1.000
    N5053    N        0.78376    0.47243    0.57083    1.000
    N5054    N        0.86006    0.46883    0.57631    1.000
    N5055    N        0.81478    0.45042    0.50682    1.000
    N5056    N        0.92167    0.46863    0.55497    1.000
    Si5057   Si       0.92498    0.42730    0.56657    1.000
    N5058    N        0.88310    0.46336    0.50036    1.000
    N5059    N        0.93166    0.42481    0.61054    1.000
    Si5060   Si       0.87910    0.48203    0.54090    1.000
    N5061    N        0.76576    0.46126    0.73571    1.000
    Si5062   Si       0.79297    0.45856    0.70121    1.000
    N5063    N        0.76913    0.45356    0.66395    1.000
    N5064    N        0.82126    0.42587    0.70334    1.000
    N5065    N        0.94432    0.44984    0.74069    1.000
    N5066    N        0.86766    0.46699    0.72988    1.000
    Si5067   Si       0.86444    0.43030    0.70635    1.000
    Si5068   Si       0.91371    0.44333    0.64635    1.000
    N5069    N        0.95134    0.43909    0.66744    1.000
    Si5070   Si       0.97120    0.44927    0.70414    1.000
    N5071    N        0.82591    0.43548    0.83990    1.000
    Si5072   Si       0.81252    0.47435    0.82675    1.000
    N5073    N        0.76915    0.47590    0.81411    1.000
    Si5074   Si       0.76748    0.42078    0.75429    1.000
    N5075    N        0.89321    0.44765    0.79308    1.000
    Si5076   Si       0.91160    0.44984    0.83188    1.000
    Si5077   Si       0.98168    0.43900    0.84199    1.000
    N5078    N        0.88739    0.45633    0.86678    1.000
    Si5079   Si       0.91260    0.42555    0.75949    1.000
    Si5080   Si       0.87060    0.47748    0.77149    1.000
    Si5081   Si       0.85063    0.43375    0.87524    1.000
    Si5082   Si       0.74526    0.44144    0.98603    1.000
    N5083    N        0.75945    0.44236    0.94313    1.000
    N5084    N        0.82907    0.45015    0.90818    1.000
    Si5085   Si       0.79854    0.42797    0.93195    1.000
    Si5086   Si       0.86083    0.43608    0.97507    1.000
    N5087    N        0.86401    0.47930    0.96322    1.000
    N5088    N        0.81980    0.41989    0.96802    1.000
    Si5089   Si       0.98583    0.43647    0.92114    1.000
    Si5090   Si       0.97926    0.47542    0.98597    1.000
    N5091    N        0.93524    0.46263    0.97583    1.000
    N5092    N        0.97103    0.45266    0.88397    1.000
    Si5093   Si       0.83678    0.52660    0.08514    1.000
    N5094    N        0.75936    0.52586    0.10419    1.000
    N5095    N        0.81663    0.48866    0.09317    1.000
    N5096    N        0.74585    0.52565    0.04116    1.000
    Si5097   Si       0.74579    0.48475    0.03071    1.000
    Si5098   Si       0.77369    0.48547    0.09821    1.000
    N5099    N        0.87909    0.52653    0.08379    1.000
    N5100    N        0.90191    0.49623    0.02458    1.000
    Si5101   Si       0.95944    0.51704    0.08660    1.000
    Si5102   Si       0.89549    0.49427    0.10971    1.000
    Si5103   Si       0.90187    0.53372    0.04657    1.000
    N5104    N        0.93828    0.49375    0.11651    1.000
    N5105    N        0.98500    0.48849    0.06722    1.000
    Si5106   Si       0.81537    0.52779    0.19757    1.000
    Si5107   Si       0.75985    0.49131    0.16675    1.000
    N5108    N        0.79146    0.51896    0.16099    1.000
    N5109    N        0.82087    0.48508    0.21195    1.000
    Si5110   Si       0.95652    0.52227    0.15190    1.000
    Si5111   Si       0.88837    0.52195    0.18259    1.000
    N5112    N        0.89008    0.50041    0.21974    1.000
    N5113    N        0.95258    0.52656    0.23791    1.000
    Si5114   Si       0.98421    0.50633    0.21199    1.000
    N5115    N        0.88161    0.49152    0.15111    1.000
    N5116    N        0.98765    0.53750    0.18258    1.000
    Si5117   Si       0.81826    0.49411    0.32078    1.000
    N5118    N        0.78735    0.51512    0.34223    1.000
    N5119    N        0.82930    0.52008    0.28684    1.000
    Si5120   Si       0.75228    0.51422    0.31670    1.000
    N5121    N        0.85855    0.50000    0.33786    1.000
    N5122    N        0.76498    0.52737    0.27573    1.000
    Si5123   Si       0.86669    0.52992    0.30735    1.000
    N5124    N        0.90568    0.52819    0.28869    1.000
    N5125    N        0.96893    0.49638    0.36061    1.000
    Si5126   Si       0.91840    0.50660    0.25315    1.000
    N5127    N        0.91372    0.53505    0.36301    1.000
    Si5128   Si       0.88401    0.50289    0.37095    1.000
    N5129    N        0.82697    0.50063    0.47044    1.000
    Si5130   Si       0.83216    0.49373    0.42768    1.000
    N5131    N        0.79663    0.50533    0.40848    1.000
    Si5132   Si       0.84968    0.53442    0.48852    1.000
    Si5133   Si       0.75370    0.49785    0.42195    1.000
    N5134    N        0.86555    0.51535    0.41005    1.000
    Si5135   Si       0.95594    0.48670    0.44237    1.000
    N5136    N        0.93449    0.51966    0.42425    1.000
    Si5137   Si       0.95176    0.52817    0.38540    1.000
    N5138    N        0.95575    0.48274    0.48701    1.000
    Si5139   Si       0.77134    0.51482    0.56376    1.000
    N5140    N        0.78776    0.52663    0.52497    1.000
    Si5141   Si       0.79586    0.48894    0.50233    1.000
    N5142    N        0.86247    0.51921    0.52770    1.000
    Si5143   Si       0.93538    0.50573    0.57423    1.000
    N5144    N        0.96859    0.51233    0.60128    1.000
    N5145    N        0.89748    0.52418    0.58654    1.000
    Si5146   Si       0.97830    0.50102    0.51933    1.000
    Si5147   Si       0.87547    0.49507    0.60976    1.000
    N5148    N        0.94978    0.52797    0.54087    1.000
    N5149    N        0.83371    0.49644    0.62408    1.000
    N5150    N        0.77085    0.52085    0.64398    1.000
    N5151    N        0.81569    0.49576    0.69189    1.000
    Si5152   Si       0.81116    0.51654    0.65458    1.000
    Si5153   Si       0.85254    0.50360    0.71019    1.000
    Si5154   Si       0.74305    0.48897    0.65356    1.000
    Si5155   Si       0.93909    0.49290    0.74243    1.000
    Si5156   Si       0.92141    0.51450    0.67126    1.000
    N5157    N        0.95220    0.50065    0.70209    1.000
    N5158    N        0.90605    0.48496    0.64277    1.000
    N5159    N        0.88832    0.52671    0.69765    1.000
    N5160    N        0.81210    0.50636    0.85785    1.000
    Si5161   Si       0.76235    0.49100    0.77241    1.000
    N5162    N        0.78068    0.53042    0.77568    1.000
    Si5163   Si       0.82505    0.52624    0.77957    1.000
    N5164    N        0.83411    0.48566    0.79151    1.000
    N5165    N        0.84584    0.52974    0.74398    1.000
    Si5166   Si       0.84410    0.53868    0.85070    1.000
    N5167    N        0.93461    0.48719    0.83526    1.000
    N5168    N        0.88395    0.52426    0.84077    1.000
    Si5169   Si       0.91552    0.51732    0.81094    1.000
    N5170    N        0.90531    0.50930    0.76695    1.000
    N5171    N        0.97147    0.50153    0.77377    1.000
    Si5172   Si       0.84306    0.49015    0.92720    1.000
    Si5173   Si       0.78389    0.51339    0.88921    1.000
    Si5174   Si       0.77742    0.51429    0.96467    1.000
    N5175    N        0.80139    0.50687    0.92859    1.000
    N5176    N        0.74850    0.48840    0.88509    1.000
    N5177    N        0.76735    0.48258    0.99274    1.000
    N5178    N        0.86325    0.51706    0.90136    1.000
    N5179    N        0.93040    0.50632    0.89900    1.000
    Si5180   Si       0.96393    0.49331    0.87205    1.000
    Si5181   Si       0.89452    0.49887    0.87510    1.000
    Si5182   Si       0.90196    0.49116    0.98082    1.000
    N5183    N        0.91137    0.52878    0.96321    1.000
    Si5184   Si       0.93128    0.53916    0.92719    1.000
    N5185    N        0.81964    0.56042    0.11008    1.000
    Si5186   Si       0.78101    0.55025    0.02858    1.000
    N5187    N        0.76075    0.58890    0.02493    1.000
    Si5188   Si       0.82627    0.58466    0.07454    1.000
    N5189    N        0.81788    0.54865    0.05099    1.000
    Si5190   Si       0.95947    0.58381    0.04643    1.000
    N5191    N        0.88609    0.56425    0.02094    1.000
    N5192    N        0.98225    0.58659    0.00923    1.000
    N5193    N        0.94128    0.54766    0.05836    1.000
    Si5194   Si       0.98872    0.58328    0.11476    1.000
    N5195    N        0.97811    0.54178    0.11783    1.000
    N5196    N        0.86660    0.59788    0.08084    1.000
    N5197    N        0.75725    0.58187    0.14518    1.000
    N5198    N        0.85396    0.54839    0.19401    1.000
    N5199    N        0.78653    0.54931    0.22059    1.000
    Si5200   Si       0.78339    0.54930    0.13071    1.000
    Si5201   Si       0.85973    0.59264    0.18828    1.000
    Si5202   Si       0.79356    0.59325    0.21957    1.000
    N5203    N        0.92125    0.54254    0.16209    1.000
    Si5204   Si       0.92477    0.58625    0.15955    1.000
    Si5205   Si       0.94954    0.56947    0.23138    1.000
    N5206    N        0.93717    0.59615    0.20004    1.000
    N5207    N        0.81805    0.58776    0.25924    1.000
    Si5208   Si       0.80261    0.54563    0.26488    1.000
    Si5209   Si       0.83786    0.59305    0.34687    1.000
    N5210    N        0.86729    0.56664    0.32959    1.000
    Si5211   Si       0.92814    0.56273    0.30083    1.000
    Si5212   Si       0.89747    0.57560    0.36284    1.000
    N5213    N        0.92406    0.58422    0.26333    1.000
    N5214    N        0.96925    0.54896    0.31399    1.000
    Si5215   Si       0.96994    0.58862    0.34622    1.000
    N5216    N        0.92688    0.59523    0.33348    1.000
    N5217    N        0.98549    0.58913    0.24946    1.000
    Si5218   Si       0.78859    0.53680    0.37949    1.000
    N5219    N        0.81142    0.57454    0.37429    1.000
    Si5220   Si       0.74534    0.57816    0.43168    1.000
    N5221    N        0.74965    0.55372    0.39662    1.000
    N5222    N        0.75771    0.55893    0.47033    1.000
    N5223    N        0.82640    0.56907    0.48333    1.000
    N5224    N        0.97856    0.56360    0.38171    1.000
    N5225    N        0.89668    0.58079    0.40626    1.000
    Si5226   Si       0.90320    0.58057    0.48952    1.000
    N5227    N        0.88682    0.54654    0.46745    1.000
    N5228    N        0.94833    0.57731    0.48586    1.000
    Si5229   Si       0.89604    0.54158    0.42592    1.000
    Si5230   Si       0.80869    0.58081    0.56939    1.000
    N5231    N        0.85118    0.57933    0.56884    1.000
    N5232    N        0.78798    0.54656    0.58646    1.000
    Si5233   Si       0.78672    0.56335    0.50103    1.000
    N5234    N        0.78949    0.59411    0.53300    1.000
    Si5235   Si       0.87929    0.54786    0.55512    1.000
    N5236    N        0.90442    0.57620    0.53426    1.000
    Si5237   Si       0.94879    0.57025    0.53101    1.000
    Si5238   Si       0.78091    0.56465    0.62787    1.000
    N5239    N        0.81940    0.56044    0.65111    1.000
    N5240    N        0.74672    0.58502    0.64667    1.000
    N5241    N        0.75719    0.58510    0.73922    1.000
    Si5242   Si       0.83703    0.59426    0.66815    1.000
    N5243    N        0.83126    0.59737    0.71007    1.000
    Si5244   Si       0.97322    0.54537    0.63136    1.000
    Si5245   Si       0.88956    0.54130    0.73862    1.000
    N5246    N        0.93537    0.55101    0.65322    1.000
    Si5247   Si       0.91593    0.58579    0.64362    1.000
    N5248    N        0.83049    0.55473    0.81269    1.000
    Si5249   Si       0.76139    0.56828    0.78005    1.000
    Si5250   Si       0.75424    0.58289    0.85870    1.000
    N5251    N        0.77194    0.59109    0.81820    1.000
    Si5252   Si       0.81332    0.59465    0.81043    1.000
    N5253    N        0.93838    0.55520    0.80798    1.000
    Si5254   Si       0.97515    0.54352    0.78440    1.000
    N5255    N        0.96417    0.56527    0.74667    1.000
    N5256    N        0.89230    0.58253    0.75004    1.000
    N5257    N        0.84678    0.57629    0.87686    1.000
    Si5258   Si       0.75021    0.56780    0.92537    1.000
    N5259    N        0.76352    0.55279    0.88738    1.000
    Si5260   Si       0.81473    0.57997    0.96402    1.000
    N5261    N        0.85565    0.56880    0.95197    1.000
    N5262    N        0.79511    0.54673    0.98680    1.000
    N5263    N        0.78501    0.59334    0.93501    1.000
    Si5264   Si       0.96468    0.58758    0.96790    1.000
    N5265    N        0.90745    0.57089    0.90712    1.000
    N5266    N        0.92258    0.59559    0.96843    1.000
    Si5267   Si       0.86462    0.55914    0.91064    1.000
    Si5268   Si       0.88991    0.56722    0.97673    1.000
    N5269    N        0.96962    0.55523    0.93927    1.000
    Si5270   Si       0.78799    0.62176    0.01964    1.000
    N5271    N        0.80923    0.61941    0.05711    1.000
    N5272    N        0.75828    0.64111    0.09537    1.000
    Si5273   Si       0.80144    0.64653    0.08926    1.000
    Si5274   Si       0.73992    0.65250    0.05792    1.000
    N5275    N        0.98875    0.60155    0.07573    1.000
    N5276    N        0.88116    0.63381    0.02001    1.000
    N5277    N        0.93066    0.61398    0.04771    1.000
    Si5278   Si       0.92227    0.64987    0.02218    1.000
    Si5279   Si       0.98454    0.64622    0.06829    1.000
    Si5280   Si       0.88970    0.60123    0.04468    1.000
    Si5281   Si       0.86813    0.62089    0.11593    1.000
    N5282    N        0.82440    0.63219    0.12339    1.000
    N5283    N        0.76225    0.61963    0.23142    1.000
    N5284    N        0.81647    0.60376    0.18402    1.000
    Si5285   Si       0.80989    0.64146    0.16388    1.000
    Si5286   Si       0.74839    0.62355    0.13566    1.000
    N5287    N        0.76674    0.64625    0.16668    1.000
    Si5288   Si       0.75058    0.65315    0.20509    1.000
    Si5289   Si       0.95394    0.63639    0.20197    1.000
    N5290    N        0.88449    0.60130    0.15163    1.000
    Si5291   Si       0.96081    0.64645    0.13410    1.000
    N5292    N        0.95358    0.60284    0.13398    1.000
    N5293    N        0.87178    0.62079    0.21898    1.000
    N5294    N        0.93424    0.64978    0.24106    1.000
    N5295    N        0.82372    0.62057    0.31770    1.000
    Si5296   Si       0.83708    0.62365    0.27534    1.000
    Si5297   Si       0.89299    0.62825    0.32729    1.000
    N5298    N        0.87990    0.62342    0.28529    1.000
    N5299    N        0.87497    0.61889    0.36439    1.000
    Si5300   Si       0.90429    0.62049    0.24960    1.000
    N5301    N        0.98473    0.62329    0.37199    1.000
    N5302    N        0.78910    0.64195    0.37009    1.000
    Si5303   Si       0.83621    0.60851    0.46576    1.000
    N5304    N        0.83574    0.61537    0.42241    1.000
    N5305    N        0.77148    0.61111    0.42847    1.000
    N5306    N        0.80332    0.63339    0.48205    1.000
    Si5307   Si       0.80104    0.60969    0.39755    1.000
    Si5308   Si       0.77255    0.64575    0.45468    1.000
    N5309    N        0.87753    0.61402    0.47784    1.000
    Si5310   Si       0.97180    0.65025    0.40249    1.000
    Si5311   Si       0.89785    0.65217    0.47370    1.000
    Si5312   Si       0.87585    0.62208    0.40786    1.000
    N5313    N        0.93792    0.64157    0.48930    1.000
    N5314    N        0.97055    0.61838    0.43251    1.000
    Si5315   Si       0.96720    0.61259    0.47412    1.000
    N5316    N        0.89595    0.65435    0.42952    1.000
    Si5317   Si       0.79480    0.63640    0.52392    1.000
    N5318    N        0.79609    0.60508    0.60600    1.000
    N5319    N        0.89842    0.64370    0.54899    1.000
    N5320    N        0.96026    0.60866    0.54630    1.000
    Si5321   Si       0.93853    0.64618    0.53393    1.000
    N5322    N        0.96631    0.64770    0.59807    1.000
    Si5323   Si       0.89021    0.60531    0.56427    1.000
    Si5324   Si       0.98553    0.61384    0.58321    1.000
    Si5325   Si       0.93038    0.63668    0.61648    1.000
    N5326    N        0.91240    0.59885    0.60085    1.000
    Si5327   Si       0.79691    0.64195    0.62584    1.000
    Si5328   Si       0.79374    0.60735    0.73250    1.000
    N5329    N        0.82959    0.63898    0.65603    1.000
    N5330    N        0.76851    0.65090    0.65739    1.000
    N5331    N        0.79376    0.65173    0.72377    1.000
    Si5332   Si       0.87348    0.64576    0.65772    1.000
    N5333    N        0.93555    0.63549    0.72368    1.000
    N5334    N        0.94169    0.61795    0.65462    1.000
    Si5335   Si       0.96439    0.62710    0.69155    1.000
    N5336    N        0.87846    0.59955    0.65942    1.000
    N5337    N        0.84165    0.62508    0.82145    1.000
    Si5338   Si       0.86187    0.61281    0.85823    1.000
    N5339    N        0.81612    0.60184    0.76858    1.000
    Si5340   Si       0.85457    0.60564    0.74701    1.000
    N5341    N        0.86602    0.64759    0.75404    1.000
    N5342    N        0.94132    0.62122    0.78503    1.000
    N5343    N        0.90154    0.60441    0.84844    1.000
    N5344    N        0.96248    0.59907    0.85600    1.000
    Si5345   Si       0.93264    0.59736    0.74893    1.000
    Si5346   Si       0.93561    0.59627    0.82135    1.000
    N5347    N        0.81974    0.61576    0.99060    1.000
    Si5348   Si       0.84995    0.64535    0.98949    1.000
    N5349    N        0.75164    0.62087    0.88073    1.000
    Si5350   Si       0.76927    0.63062    0.91878    1.000
    N5351    N        0.87095    0.64425    0.95146    1.000
    N5352    N        0.86561    0.65059    0.88086    1.000
    N5353    N        0.93622    0.63547    0.91233    1.000
    Si5354   Si       0.91500    0.63415    0.95096    1.000
    Si5355   Si       0.92609    0.60449    0.88377    1.000
    N5356    N        0.81615    0.68332    0.07200    1.000
    Si5357   Si       0.80594    0.69132    0.03043    1.000
    N5358    N        0.83968    0.68692    0.00292    1.000
    N5359    N        0.77206    0.66215    0.02429    1.000
    Si5360   Si       0.74595    0.69837    0.01853    1.000
    N5361    N        0.90850    0.68714    0.04407    1.000
    Si5362   Si       0.91697    0.68111    0.08563    1.000
    N5363    N        0.95621    0.66750    0.09689    1.000
    Si5364   Si       0.87435    0.71008    0.02569    1.000
    Si5365   Si       0.98678    0.70290    0.02422    1.000
    N5366    N        0.97804    0.65934    0.02794    1.000
    N5367    N        0.88900    0.65705    0.10686    1.000
    N5368    N        0.76310    0.68901    0.22408    1.000
    N5369    N        0.83146    0.67421    0.18227    1.000
    Si5370   Si       0.85388    0.66306    0.21836    1.000
    N5371    N        0.93968    0.66135    0.16830    1.000
    N5372    N        0.95931    0.70657    0.21148    1.000
    N5373    N        0.88569    0.69371    0.22558    1.000
    Si5374   Si       0.94091    0.70377    0.17179    1.000
    Si5375   Si       0.92826    0.69272    0.23723    1.000
    N5376    N        0.83161    0.68351    0.33967    1.000
    Si5377   Si       0.78779    0.67805    0.26132    1.000
    N5378    N        0.77212    0.66014    0.29746    1.000
    N5379    N        0.82664    0.65785    0.25209    1.000
    Si5380   Si       0.80146    0.65507    0.32901    1.000
    Si5381   Si       0.87161    0.69694    0.34482    1.000
    Si5382   Si       0.94006    0.68589    0.34196    1.000
    N5383    N        0.90132    0.67163    0.32866    1.000
    N5384    N        0.97445    0.67130    0.31879    1.000
    Si5385   Si       0.97865    0.70452    0.28744    1.000
    N5386    N        0.93825    0.71074    0.27563    1.000
    N5387    N        0.76203    0.71146    0.37456    1.000
    N5388    N        0.78154    0.67905    0.43164    1.000
    Si5389   Si       0.76501    0.67180    0.39093    1.000
    N5390    N        0.81845    0.71596    0.47661    1.000
    Si5391   Si       0.97981    0.70824    0.43987    1.000
    N5392    N        0.94201    0.67343    0.38255    1.000
    N5393    N        0.98817    0.69301    0.47967    1.000
    Si5394   Si       0.90948    0.68968    0.40785    1.000
    N5395    N        0.87888    0.71296    0.38617    1.000
    N5396    N        0.79060    0.67761    0.60213    1.000
    Si5397   Si       0.79537    0.68370    0.56050    1.000
    N5398    N        0.76409    0.66470    0.53558    1.000
    N5399    N        0.82712    0.65699    0.54518    1.000
    Si5400   Si       0.86738    0.67205    0.53707    1.000
    Si5401   Si       0.96708    0.69015    0.58126    1.000
    Si5402   Si       0.89409    0.69758    0.60435    1.000
    N5403    N        0.95650    0.68573    0.54114    1.000
    N5404    N        0.87816    0.70473    0.56304    1.000
    N5405    N        0.93433    0.70862    0.60380    1.000
    N5406    N        0.87619    0.68216    0.49637    1.000
    Si5407   Si       0.80186    0.66149    0.68279    1.000
    N5408    N        0.80802    0.70318    0.67222    1.000
    Si5409   Si       0.78606    0.70840    0.63326    1.000
    Si5410   Si       0.89750    0.66094    0.72714    1.000
    N5411    N        0.88255    0.67625    0.68903    1.000
    N5412    N        0.89277    0.65940    0.62223    1.000
    N5413    N        0.81225    0.68064    0.78965    1.000
    N5414    N        0.75423    0.69728    0.83045    1.000
    Si5415   Si       0.79495    0.70745    0.82003    1.000
    Si5416   Si       0.78721    0.68291    0.75397    1.000
    N5417    N        0.74672    0.66996    0.76756    1.000
    N5418    N        0.81721    0.70510    0.85740    1.000
    Si5419   Si       0.84998    0.65971    0.79419    1.000
    N5420    N        0.87671    0.68658    0.81759    1.000
    N5421    N        0.96017    0.69522    0.79625    1.000
    N5422    N        0.93204    0.67767    0.85798    1.000
    Si5423   Si       0.96803    0.70286    0.84022    1.000
    Si5424   Si       0.88991    0.67985    0.85811    1.000
    Si5425   Si       0.94851    0.65749    0.76494    1.000
    N5426    N        0.91990    0.68956    0.75008    1.000
    N5427    N        0.84403    0.70183    0.92652    1.000
    Si5428   Si       0.80073    0.70568    0.91213    1.000
    Si5429   Si       0.84738    0.65852    0.91929    1.000
    N5430    N        0.75724    0.70680    0.89930    1.000
    N5431    N        0.77937    0.71194    0.95565    1.000
    N5432    N        0.80452    0.65647    0.91424    1.000
    Si5433   Si       0.73935    0.69865    0.94042    1.000
    N5434    N        0.92354    0.70371    0.92713    1.000
    Si5435   Si       0.94713    0.67647    0.89990    1.000
    N5436    N        0.98178    0.70173    0.88897    1.000
    N5437    N        0.93042    0.66242    0.98089    1.000
    Si5438   Si       0.92865    0.70454    0.97041    1.000
    N5439    N        0.78815    0.74082    0.08913    1.000
    N5440    N        0.85086    0.73582    0.05083    1.000
    N5441    N        0.77992    0.72507    0.02150    1.000
    Si5442   Si       0.82714    0.72179    0.08808    1.000
    Si5443   Si       0.77153    0.75963    0.05100    1.000
    N5444    N        0.97846    0.72551    0.06195    1.000
    N5445    N        0.91616    0.72302    0.10278    1.000
    Si5446   Si       0.96072    0.72435    0.10173    1.000
    Si5447   Si       0.97641    0.76863    0.06071    1.000
    N5448    N        0.96636    0.77163    0.10266    1.000
    Si5449   Si       0.76408    0.74331    0.12508    1.000
    N5450    N        0.84698    0.72323    0.12546    1.000
    Si5451   Si       0.75862    0.72481    0.19579    1.000
    N5452    N        0.84203    0.74328    0.19299    1.000
    N5453    N        0.77795    0.76090    0.21387    1.000
    N5454    N        0.78339    0.72278    0.15871    1.000
    Si5455   Si       0.82585    0.71435    0.16574    1.000
    N5456    N        0.90503    0.76206    0.23218    1.000
    Si5457   Si       0.88770    0.74075    0.13066    1.000
    N5458    N        0.97235    0.71572    0.14374    1.000
    Si5459   Si       0.88244    0.73399    0.20887    1.000
    N5460    N        0.90430    0.72822    0.17066    1.000
    Si5461   Si       0.78518    0.74426    0.30040    1.000
    N5462    N        0.80684    0.75412    0.33780    1.000
    Si5463   Si       0.84882    0.76433    0.33646    1.000
    N5464    N        0.74485    0.73938    0.31451    1.000
    N5465    N        0.80246    0.71795    0.27254    1.000
    N5466    N        0.87521    0.73348    0.32018    1.000
    N5467    N        0.93830    0.72988    0.33943    1.000
    Si5468   Si       0.91378    0.73511    0.30198    1.000
    Si5469   Si       0.79109    0.72015    0.44313    1.000
    Si5470   Si       0.78597    0.74856    0.37763    1.000
    N5471    N        0.81163    0.74017    0.41200    1.000
    N5472    N        0.75666    0.74407    0.45350    1.000
    Si5473   Si       0.85701    0.74585    0.40654    1.000
    Si5474   Si       0.86230    0.71969    0.47924    1.000
    Si5475   Si       0.92049    0.74972    0.45035    1.000
    N5476    N        0.94072    0.74442    0.49011    1.000
    N5477    N        0.87801    0.73934    0.44445    1.000
    N5478    N        0.93785    0.71553    0.43183    1.000
    Si5479   Si       0.78550    0.75225    0.57852    1.000
    Si5480   Si       0.81572    0.74198    0.51173    1.000
    N5481    N        0.80183    0.72550    0.54837    1.000
    N5482    N        0.80428    0.74355    0.61661    1.000
    N5483    N        0.74265    0.74692    0.57196    1.000
    N5484    N        0.85821    0.76917    0.57830    1.000
    Si5485   Si       0.84784    0.75313    0.61582    1.000
    N5486    N        0.86013    0.74856    0.51160    1.000
    Si5487   Si       0.88209    0.74693    0.54952    1.000
    N5488    N        0.91872    0.76927    0.55075    1.000
    Si5489   Si       0.96825    0.71523    0.51094    1.000
    N5490    N        0.79782    0.72188    0.73881    1.000
    Si5491   Si       0.81441    0.73714    0.70035    1.000
    N5492    N        0.85551    0.74876    0.69444    1.000
    N5493    N        0.78632    0.76667    0.68476    1.000
    N5494    N        0.74394    0.71978    0.63387    1.000
    N5495    N        0.94195    0.77483    0.62422    1.000
    Si5496   Si       0.93983    0.76040    0.70818    1.000
    N5497    N        0.92278    0.73512    0.67771    1.000
    N5498    N        0.96469    0.74267    0.73863    1.000
    N5499    N        0.87318    0.72230    0.63277    1.000
    N5500    N        0.98516    0.72444    0.64880    1.000
    Si5501   Si       0.94449    0.73474    0.63894    1.000
    Si5502   Si       0.88336    0.71841    0.67522    1.000
    N5503    N        0.78621    0.74678    0.80489    1.000
    Si5504   Si       0.78544    0.75584    0.76285    1.000
    N5505    N        0.85203    0.75833    0.83317    1.000
    N5506    N        0.75532    0.76834    0.86007    1.000
    Si5507   Si       0.74249    0.72475    0.86190    1.000
    Si5508   Si       0.84091    0.73777    0.87215    1.000
    Si5509   Si       0.94019    0.72314    0.76989    1.000
    Si5510   Si       0.88314    0.72946    0.82294    1.000
    N5511    N        0.90946    0.74516    0.79250    1.000
    N5512    N        0.96389    0.74567    0.84337    1.000
    Si5513   Si       0.78819    0.74584    0.98244    1.000
    N5514    N        0.83100    0.75119    0.97742    1.000
    N5515    N        0.80839    0.75165    0.90141    1.000
    Si5516   Si       0.85074    0.71322    0.96710    1.000
    Si5517   Si       0.77212    0.77555    0.90238    1.000
    N5518    N        0.88993    0.71864    0.98460    1.000
    N5519    N        0.88406    0.72268    0.87213    1.000
    Si5520   Si       0.96645    0.76341    0.98553    1.000
    N5521    N        0.96250    0.72111    0.99104    1.000
    N5522    N        0.94098    0.76362    0.90495    1.000
    N5523    N        0.87754    0.76619    0.92792    1.000
    Si5524   Si       0.97508    0.74505    0.88645    1.000
    Si5525   Si       0.90536    0.73816    0.90719    1.000
    N5526    N        0.80621    0.78949    0.03512    1.000
    Si5527   Si       0.78056    0.81196    0.00907    1.000
    Si5528   Si       0.85056    0.77852    0.03819    1.000
    N5529    N        0.74257    0.82041    0.02633    1.000
    N5530    N        0.87007    0.80783    0.06321    1.000
    N5531    N        0.87937    0.78644    0.00471    1.000
    Si5532   Si       0.92132    0.79822    0.00525    1.000
    N5533    N        0.92900    0.83030    0.10249    1.000
    N5534    N        0.95483    0.77836    0.02502    1.000
    Si5535   Si       0.88737    0.82676    0.09836    1.000
    Si5536   Si       0.81785    0.77723    0.20369    1.000
    N5537    N        0.75465    0.78483    0.12780    1.000
    N5538    N        0.83481    0.80100    0.23607    1.000
    N5539    N        0.82146    0.80299    0.16722    1.000
    Si5540   Si       0.86176    0.80806    0.15236    1.000
    N5541    N        0.75216    0.82676    0.24049    1.000
    Si5542   Si       0.75557    0.78219    0.24267    1.000
    Si5543   Si       0.92206    0.83129    0.19172    1.000
    N5544    N        0.94668    0.80471    0.16646    1.000
    Si5545   Si       0.93745    0.79482    0.12518    1.000
    Si5546   Si       0.98895    0.80498    0.17764    1.000
    N5547    N        0.87900    0.83153    0.18637    1.000
    N5548    N        0.89184    0.78453    0.12872    1.000
    N5549    N        0.92739    0.82760    0.23456    1.000
    Si5550   Si       0.82394    0.80554    0.27827    1.000
    N5551    N        0.85737    0.79663    0.30631    1.000
    N5552    N        0.78206    0.78397    0.27851    1.000
    Si5553   Si       0.76168    0.83008    0.28456    1.000
    N5554    N        0.92234    0.79969    0.35337    1.000
    Si5555   Si       0.90030    0.80670    0.31551    1.000
    Si5556   Si       0.93448    0.78553    0.25160    1.000
    N5557    N        0.92833    0.77708    0.29543    1.000
    N5558    N        0.97859    0.78563    0.24919    1.000
    Si5559   Si       0.95097    0.77202    0.33694    1.000
    N5560    N        0.98928    0.77687    0.35857    1.000
    N5561    N        0.85752    0.77946    0.37783    1.000
    Si5562   Si       0.85755    0.82327    0.38434    1.000
    N5563    N        0.77548    0.81190    0.44715    1.000
    Si5564   Si       0.74959    0.81238    0.41312    1.000
    N5565    N        0.85206    0.80533    0.45295    1.000
    Si5566   Si       0.76825    0.78149    0.47605    1.000
    N5567    N        0.75868    0.78118    0.38060    1.000
    Si5568   Si       0.81561    0.82704    0.44616    1.000
    N5569    N        0.80785    0.78076    0.49474    1.000
    N5570    N        0.92347    0.78952    0.43137    1.000
    N5571    N        0.90141    0.79950    0.49018    1.000
    Si5572   Si       0.92974    0.81221    0.39444    1.000
    Si5573   Si       0.89428    0.81833    0.45073    1.000
    N5574    N        0.79288    0.79530    0.57233    1.000
    Si5575   Si       0.76216    0.80563    0.54064    1.000
    N5576    N        0.84696    0.81925    0.52953    1.000
    Si5577   Si       0.83644    0.80563    0.56957    1.000
    N5578    N        0.74220    0.78147    0.51221    1.000
    Si5579   Si       0.76856    0.82267    0.59852    1.000
    Si5580   Si       0.85532    0.79011    0.49668    1.000
    Si5581   Si       0.92670    0.79093    0.58722    1.000
    N5582    N        0.97583    0.80137    0.51261    1.000
    N5583    N        0.95623    0.81936    0.57415    1.000
    Si5584   Si       0.93508    0.78405    0.51184    1.000
    N5585    N        0.90103    0.82260    0.60614    1.000
    Si5586   Si       0.98766    0.82547    0.54758    1.000
    N5587    N        0.74296    0.81744    0.70533    1.000
    Si5588   Si       0.79974    0.77767    0.64473    1.000
    Si5589   Si       0.74773    0.78741    0.67367    1.000
    N5590    N        0.76527    0.80151    0.63624    1.000
    N5591    N        0.83941    0.79077    0.63732    1.000
    N5592    N        0.85892    0.82287    0.71964    1.000
    Si5593   Si       0.76164    0.81200    0.74416    1.000
    Si5594   Si       0.86485    0.82541    0.63138    1.000
    N5595    N        0.96177    0.79358    0.68856    1.000
    Si5596   Si       0.93756    0.80576    0.65357    1.000
    N5597    N        0.90777    0.77868    0.73235    1.000
    Si5598   Si       0.87717    0.78756    0.70166    1.000
    N5599    N        0.89802    0.80280    0.66948    1.000
    N5600    N        0.75428    0.81038    0.79645    1.000
    N5601    N        0.80551    0.81287    0.83241    1.000
    Si5602   Si       0.83976    0.81409    0.75808    1.000
    Si5603   Si       0.77369    0.78163    0.82395    1.000
    N5604    N        0.80259    0.79407    0.75534    1.000
    Si5605   Si       0.86873    0.79885    0.83241    1.000
    N5606    N        0.87434    0.80634    0.78778    1.000
    N5607    N        0.91285    0.79585    0.84436    1.000
    N5608    N        0.95009    0.79894    0.78863    1.000
    Si5609   Si       0.91021    0.78466    0.77577    1.000
    Si5610   Si       0.95227    0.78369    0.82987    1.000
    N5611    N        0.98498    0.80431    0.84778    1.000
    Si5612   Si       0.81600    0.83017    0.87203    1.000
    N5613    N        0.85515    0.81169    0.87458    1.000
    N5614    N        0.78661    0.81799    0.90187    1.000
    N5615    N        0.76680    0.78408    0.97950    1.000
    N5616    N        0.85479    0.82109    0.95110    1.000
    Si5617   Si       0.86072    0.78124    0.96720    1.000
    N5618    N        0.97868    0.82713    0.91671    1.000
    Si5619   Si       0.94397    0.80269    0.92341    1.000
    N5620    N        0.90989    0.82638    0.90563    1.000
    N5621    N        0.93978    0.79213    0.96518    1.000
    Si5622   Si       0.87231    0.80799    0.91310    1.000
    Si5623   Si       0.84431    0.87601    0.10283    1.000
    N5624    N        0.85627    0.85890    0.01030    1.000
    N5625    N        0.81090    0.87821    0.07100    1.000
    Si5626   Si       0.81959    0.87628    0.02932    1.000
    Si5627   Si       0.77657    0.88014    0.09963    1.000
    N5628    N        0.79284    0.85385    0.00287    1.000
    N5629    N        0.75026    0.84697    0.09525    1.000
    N5630    N        0.88065    0.86998    0.07402    1.000
    Si5631   Si       0.95128    0.86961    0.01960    1.000
    N5632    N        0.98202    0.86182    0.05000    1.000
    N5633    N        0.92174    0.83768    0.01978    1.000
    Si5634   Si       0.88348    0.84236    0.03820    1.000
    Si5635   Si       0.98371    0.89185    0.08171    1.000
    N5636    N        0.85687    0.84056    0.12375    1.000
    N5637    N        0.80146    0.87614    0.13550    1.000
    Si5638   Si       0.79626    0.84243    0.16347    1.000
    N5639    N        0.81220    0.85467    0.20293    1.000
    Si5640   Si       0.84872    0.83645    0.21555    1.000
    N5641    N        0.75180    0.83874    0.16699    1.000
    N5642    N        0.74751    0.89084    0.21798    1.000
    N5643    N        0.93690    0.87172    0.18506    1.000
    Si5644   Si       0.96046    0.86741    0.22761    1.000
    N5645    N        0.98622    0.83530    0.20849    1.000
    N5646    N        0.79033    0.87517    0.35077    1.000
    Si5647   Si       0.82331    0.86555    0.32383    1.000
    N5648    N        0.85643    0.84767    0.34922    1.000
    N5649    N        0.80433    0.84084    0.29507    1.000
    N5650    N        0.86304    0.86093    0.24781    1.000
    N5651    N        0.74031    0.86566    0.30217    1.000
    Si5652   Si       0.75292    0.89086    0.33413    1.000
    N5653    N        0.90522    0.84656    0.30184    1.000
    Si5654   Si       0.90336    0.85261    0.25982    1.000
    Si5655   Si       0.88628    0.87306    0.33000    1.000
    N5656    N        0.99005    0.86113    0.26393    1.000
    N5657    N        0.92471    0.88864    0.24883    1.000
    N5658    N        0.82122    0.83811    0.40447    1.000
    N5659    N        0.74678    0.87805    0.47674    1.000
    Si5660   Si       0.78994    0.86837    0.39342    1.000
    N5661    N        0.82275    0.86391    0.47483    1.000
    N5662    N        0.74926    0.85322    0.39778    1.000
    Si5663   Si       0.86135    0.88547    0.46658    1.000
    Si5664   Si       0.78787    0.89270    0.46504    1.000
    N5665    N        0.89303    0.83812    0.40518    1.000
    Si5666   Si       0.97685    0.87196    0.40668    1.000
    N5667    N        0.93851    0.88647    0.42402    1.000
    Si5668   Si       0.93375    0.88280    0.46931    1.000
    N5669    N        0.96956    0.83080    0.39572    1.000
    Si5670   Si       0.89898    0.88204    0.40341    1.000
    N5671    N        0.89663    0.85892    0.46664    1.000
    N5672    N        0.78048    0.86545    0.59640    1.000
    Si5673   Si       0.81734    0.85130    0.51590    1.000
    Si5674   Si       0.82278    0.87631    0.58407    1.000
    N5675    N        0.77500    0.84188    0.52245    1.000
    N5676    N        0.82545    0.88434    0.54147    1.000
    N5677    N        0.84286    0.84079    0.59366    1.000
    Si5678   Si       0.74287    0.87240    0.51883    1.000
    Si5679   Si       0.93339    0.85177    0.59953    1.000
    N5680    N        0.96350    0.87729    0.50120    1.000
    N5681    N        0.93421    0.88823    0.57402    1.000
    N5682    N        0.85583    0.85976    0.65687    1.000
    Si5683   Si       0.86142    0.86272    0.70065    1.000
    Si5684   Si       0.98851    0.86085    0.65523    1.000
    N5685    N        0.95485    0.84167    0.63678    1.000
    Si5686   Si       0.98052    0.88422    0.72402    1.000
    N5687    N        0.90177    0.88287    0.70533    1.000
    N5688    N        0.97762    0.84379    0.73577    1.000
    N5689    N        0.96717    0.88860    0.68294    1.000
    N5690    N        0.82908    0.85229    0.77942    1.000
    N5691    N        0.77025    0.87729    0.81585    1.000
    Si5692   Si       0.78810    0.84140    0.79976    1.000
    Si5693   Si       0.80836    0.88119    0.75228    1.000
    Si5694   Si       0.85968    0.88645    0.85752    1.000
    N5695    N        0.76918    0.85627    0.75171    1.000
    N5696    N        0.91790    0.85454    0.76986    1.000
    Si5697   Si       0.98026    0.84622    0.84431    1.000
    N5698    N        0.94146    0.86253    0.85628    1.000
    N5699    N        0.87937    0.85613    0.83410    1.000
    Si5700   Si       0.87724    0.85780    0.79038    1.000
    Si5701   Si       0.90806    0.83617    0.86209    1.000
    Si5702   Si       0.95690    0.83859    0.77419    1.000
    N5703    N        0.98845    0.85516    0.80249    1.000
    Si5704   Si       0.91070    0.89171    0.74742    1.000
    N5705    N        0.76278    0.88875    0.90670    1.000
    Si5706   Si       0.78862    0.88737    0.97596    1.000
    N5707    N        0.81827    0.87797    0.94648    1.000
    N5708    N        0.82116    0.87255    0.87454    1.000
    Si5709   Si       0.75335    0.84411    0.90934    1.000
    Si5710   Si       0.85360    0.86290    0.96643    1.000
    N5711    N        0.97841    0.88609    0.98742    1.000
    N5712    N        0.75290    0.91756    0.09894    1.000
    N5713    N        0.81334    0.91157    0.00119    1.000
    N5714    N        0.75031    0.94445    0.03309    1.000
    Si5715   Si       0.83130    0.95085    0.99846    1.000
    Si5716   Si       0.90862    0.90079    0.06497    1.000
    N5717    N        0.94421    0.90380    0.08999    1.000
    N5718    N        0.92128    0.90044    0.02341    1.000
    N5719    N        0.88815    0.93838    0.06996    1.000
    Si5720   Si       0.95171    0.93748    0.11730    1.000
    Si5721   Si       0.87688    0.94702    0.11235    1.000
    N5722    N        0.85320    0.91343    0.12358    1.000
    N5723    N        0.81408    0.91898    0.19342    1.000
    Si5724   Si       0.81719    0.91500    0.15063    1.000
    Si5725   Si       0.79217    0.88975    0.21788    1.000
    N5726    N        0.86546    0.93118    0.23756    1.000
    Si5727   Si       0.96650    0.94659    0.24042    1.000
    N5728    N        0.97841    0.92541    0.15005    1.000
    Si5729   Si       0.95484    0.91139    0.18241    1.000
    Si5730   Si       0.90775    0.92892    0.23823    1.000
    N5731    N        0.92390    0.93809    0.19838    1.000
    N5732    N        0.97916    0.90714    0.21836    1.000
    N5733    N        0.76858    0.93081    0.32561    1.000
    N5734    N        0.80540    0.90344    0.25747    1.000
    Si5735   Si       0.78724    0.93212    0.28783    1.000
    Si5736   Si       0.84868    0.89906    0.26344    1.000
    Si5737   Si       0.84888    0.93469    0.32558    1.000
    N5738    N        0.85301    0.89503    0.30636    1.000
    N5739    N        0.83384    0.92559    0.36710    1.000
    Si5740   Si       0.91731    0.93694    0.36071    1.000
    N5741    N        0.95769    0.94275    0.34462    1.000
    N5742    N        0.90504    0.89599    0.36199    1.000
    Si5743   Si       0.83131    0.92496    0.40954    1.000
    N5744    N        0.79780    0.89948    0.42345    1.000
    N5745    N        0.79633    0.92497    0.49227    1.000
    N5746    N        0.86365    0.92049    0.49378    1.000
    N5747    N        0.98048    0.94328    0.42659    1.000
    Si5748   Si       0.94100    0.93066    0.42971    1.000
    N5749    N        0.92758    0.92561    0.47059    1.000
    N5750    N        0.86547    0.90112    0.42427    1.000
    Si5751   Si       0.83088    0.92155    0.52000    1.000
    N5752    N        0.83637    0.90889    0.60918    1.000
    N5753    N        0.76065    0.92705    0.60827    1.000
    N5754    N        0.74377    0.90930    0.54225    1.000
    Si5755   Si       0.75018    0.89337    0.58413    1.000
    N5756    N        0.98273    0.93262    0.54140    1.000
    N5757    N        0.96236    0.93905    0.60934    1.000
    Si5758   Si       0.92440    0.92067    0.60117    1.000
    Si5759   Si       0.96665    0.89269    0.54360    1.000
    N5760    N        0.89209    0.94731    0.58917    1.000
    Si5761   Si       0.79860    0.92857    0.62681    1.000
    Si5762   Si       0.75849    0.93786    0.69395    1.000
    N5763    N        0.75977    0.92097    0.73383    1.000
    Si5764   Si       0.82816    0.92947    0.69591    1.000
    N5765    N        0.79102    0.92501    0.66848    1.000
    N5766    N        0.86447    0.93381    0.67227    1.000
    N5767    N        0.82956    0.88943    0.71473    1.000
    N5768    N        0.90880    0.89519    0.63396    1.000
    N5769    N        0.92949    0.94635    0.67175    1.000
    Si5770   Si       0.86601    0.90018    0.64240    1.000
    Si5771   Si       0.92716    0.90141    0.67501    1.000
    N5772    N        0.81051    0.91698    0.77852    1.000
    N5773    N        0.84244    0.91461    0.83193    1.000
    Si5774   Si       0.84991    0.92657    0.79142    1.000
    Si5775   Si       0.79727    0.90976    0.82253    1.000
    N5776    N        0.77536    0.93446    0.84761    1.000
    Si5777   Si       0.78877    0.94792    0.75510    1.000
    N5778    N        0.93126    0.93609    0.85431    1.000
    N5779    N        0.87671    0.89965    0.77263    1.000
    N5780    N        0.95114    0.90622    0.74522    1.000
    N5781    N        0.74852    0.90171    0.97720    1.000
    N5782    N        0.82950    0.93302    0.91174    1.000
    Si5783   Si       0.80520    0.89622    0.90795    1.000
    Si5784   Si       0.90283    0.92085    0.98961    1.000
    N5785    N        0.88740    0.90071    0.88818    1.000
    Si5786   Si       0.97918    0.93061    0.98397    1.000
    Si5787   Si       0.87020    0.92255    0.92452    1.000
    Si5788   Si       0.93041    0.89916    0.87773    1.000
    N5789    N        0.87923    0.89760    0.95825    1.000
    N5790    N        0.93752    0.93690    0.97124    1.000
    N5791    N        0.96632    0.89794    0.90459    1.000
    Si5792   Si       0.77873    0.97430    0.04568    1.000
    N5793    N        0.76911    0.98859    0.08487    1.000
    N5794    N        0.82157    0.96365    0.03866    1.000
    N5795    N        0.85430    0.98365    0.10334    1.000
    Si5796   Si       0.76307    0.95578    0.11795    1.000
    Si5797   Si       0.86787    0.96863    0.04290    1.000
    N5798    N        0.96435    0.96936    0.09032    1.000
    N5799    N        0.98735    0.96645    0.01112    1.000
    Si5800   Si       0.97484    0.00597    0.10991    1.000
    N5801    N        0.87406    0.95013    0.00299    1.000
    N5802    N        0.86150    0.96376    0.17270    1.000
    Si5803   Si       0.83268    0.98093    0.14228    1.000
    N5804    N        0.80061    0.95178    0.13670    1.000
    N5805    N        0.81576    0.98197    0.22239    1.000
    Si5806   Si       0.83956    0.94967    0.20860    1.000
    N5807    N        0.97792    0.98168    0.21679    1.000
    N5808    N        0.91401    0.95051    0.13294    1.000
    Si5809   Si       0.90489    0.96794    0.17244    1.000
    N5810    N        0.91424    0.00557    0.19066    1.000
    N5811    N        0.76929    0.96546    0.26644    1.000
    Si5812   Si       0.80946    0.98240    0.26388    1.000
    Si5813   Si       0.75314    0.96539    0.34485    1.000
    N5814    N        0.82352    0.95512    0.29663    1.000
    N5815    N        0.76722    0.00577    0.34208    1.000
    Si5816   Si       0.93134    0.99755    0.28101    1.000
    N5817    N        0.97179    0.99606    0.29664    1.000
    N5818    N        0.92998    0.95772    0.26308    1.000
    N5819    N        0.88647    0.95664    0.33967    1.000
    Si5820   Si       0.88265    0.99949    0.34570    1.000
    Si5821   Si       0.98131    0.95381    0.31083    1.000
    N5822    N        0.75909    0.95681    0.38687    1.000
    N5823    N        0.82625    0.96557    0.42551    1.000
    N5824    N        0.76521    0.96577    0.45196    1.000
    Si5825   Si       0.78699    0.97866    0.41410    1.000
    Si5826   Si       0.84399    0.99138    0.45675    1.000
    Si5827   Si       0.78453    0.96649    0.48969    1.000
    N5828    N        0.82283    0.98833    0.49561    1.000
    Si5829   Si       0.89512    0.95010    0.48572    1.000
    Si5830   Si       0.91084    0.98944    0.41942    1.000
    N5831    N        0.88550    0.98074    0.45444    1.000
    N5832    N        0.91893    0.95065    0.40032    1.000
    N5833    N        0.94860    0.00470    0.43405    1.000
    N5834    N        0.97068    0.98181    0.49717    1.000
    Si5835   Si       0.83311    0.99345    0.53904    1.000
    N5836    N        0.75664    0.97432    0.52461    1.000
    N5837    N        0.81583    0.96746    0.61303    1.000
    N5838    N        0.86292    0.00691    0.56902    1.000
    Si5839   Si       0.84884    0.94713    0.59210    1.000
    N5840    N        0.83196    0.95170    0.55066    1.000
    N5841    N        0.90092    0.97670    0.51903    1.000
    Si5842   Si       0.89736    0.98043    0.56124    1.000
    Si5843   Si       0.93688    0.00237    0.51754    1.000
    N5844    N        0.93437    0.00468    0.56077    1.000
    Si5845   Si       0.79554    0.99731    0.70813    1.000
    N5846    N        0.74662    0.98614    0.63764    1.000
    N5847    N        0.75452    0.97997    0.70507    1.000
    N5848    N        0.81607    0.96129    0.72232    1.000
    Si5849   Si       0.78846    0.99955    0.62865    1.000
    N5850    N        0.90701    0.95752    0.73041    1.000
    N5851    N        0.98977    0.96162    0.73914    1.000
    N5852    N        0.95523    0.99815    0.63101    1.000
    N5853    N        0.87112    0.00086    0.68634    1.000
    Si5854   Si       0.89343    0.96322    0.68814    1.000
    Si5855   Si       0.96326    0.96019    0.64798    1.000
    N5856    N        0.79011    0.98344    0.77991    1.000
    N5857    N        0.81690    0.99320    0.84587    1.000
    Si5858   Si       0.82628    0.99196    0.80390    1.000
    Si5859   Si       0.78051    0.97571    0.86085    1.000
    N5860    N        0.74743    0.99897    0.84934    1.000
    N5861    N        0.85959    0.96965    0.78748    1.000
    Si5862   Si       0.89465    0.98157    0.76477    1.000
    N5863    N        0.96022    0.99275    0.84159    1.000
    N5864    N        0.93274    0.96544    0.78506    1.000
    Si5865   Si       0.95241    0.95453    0.82219    1.000
    N5866    N        0.90108    0.99866    0.87255    1.000
    Si5867   Si       0.94876    0.94936    0.74730    1.000
    Si5868   Si       0.81758    0.97307    0.92484    1.000
    N5869    N        0.81687    0.97418    0.96697    1.000
    N5870    N        0.78095    0.98134    0.90370    1.000
    Si5871   Si       0.78180    0.99873    0.97651    1.000
    N5872    N        0.74880    0.97096    0.96419    1.000
    Si5873   Si       0.88135    0.99864    0.91053    1.000
    N5874    N        0.95723    0.96559    0.90816    1.000
    N5875    N        0.94971    0.00370    0.96373    1.000
    Si5876   Si       0.93534    0.97524    0.87258    1.000
    Si5877   Si       0.93147    0.96984    0.94181    1.000
    Si5878   Si       0.98271    0.00538    0.99019    1.000
    N5879    N        0.89042    0.96103    0.92896    1.000
