# CIF file generated by openbabel 3.1.1, see https://openbabel.org
data_I
_chemical_name_common '3.01-27.aims'
_cell_length_a 39.9455
_cell_length_b 39.9455
_cell_length_c 39.9455
_cell_angle_alpha 90
_cell_angle_beta 90
_cell_angle_gamma 90
loop_
    _atom_site_label
    _atom_site_type_symbol
    _atom_site_fract_x
    _atom_site_fract_y
    _atom_site_fract_z
    _atom_site_occupancy
    N0       N        0.00710    0.03516    0.02794    1.000
    N1       N        0.08851    0.01586    0.09547    1.000
    N2       N        0.11664    0.01839    0.02956    1.000
    Si3      Si       0.11545    0.03656    0.06866    1.000
    N4       N        0.15509    0.02810    0.09033    1.000
    N5       N        0.21938    0.02691    0.05505    1.000
    Si6      Si       0.18555    0.05007    0.06944    1.000
    Si7      Si       0.14619    0.03490    0.00259    1.000
    Si8      Si       0.21060    0.01534    0.01369    1.000
    N9       N        0.16932    0.06338    0.03174    1.000
    N10      N        0.22452    0.05895    0.99721    1.000
    Si11     Si       0.08482    0.05295    0.12072    1.000
    N12      N        0.05357    0.02937    0.14571    1.000
    N13      N        0.00796    0.06387    0.19333    1.000
    Si14     Si       0.02759    0.06201    0.15239    1.000
    Si15     Si       0.21604    0.03492    0.18980    1.000
    N16      N        0.11939    0.05707    0.14929    1.000
    Si17     Si       0.15364    0.03399    0.13733    1.000
    N18      N        0.19149    0.04340    0.15490    1.000
    Si19     Si       0.22096    0.06530    0.13074    1.000
    N20      N        0.04099    0.04300    0.31126    1.000
    Si21     Si       0.08218    0.05624    0.31173    1.000
    N22      N        0.10449    0.01760    0.31524    1.000
    N23      N        0.10063    0.06278    0.27370    1.000
    N24      N        0.21787    0.01243    0.45850    1.000
    N25      N        0.22628    0.01969    0.28672    1.000
    N26      N        0.22264    0.04480    0.34910    1.000
    Si27     Si       0.17692    0.04608    0.34937    1.000
    Si28     Si       0.12336    0.02577    0.27415    1.000
    Si29     Si       0.22328    0.05724    0.30666    1.000
    N30      N        0.16215    0.03182    0.25276    1.000
    N31      N        0.18074    0.06609    0.31213    1.000
    Si32     Si       0.98791    0.02203    0.46200    1.000
    N33      N        0.03841    0.03974    0.38531    1.000
    Si34     Si       0.99375    0.03249    0.38923    1.000
    N35      N        0.02197    0.05068    0.46868    1.000
    Si36     Si       0.06482    0.04273    0.46298    1.000
    N37      N        0.09636    0.04063    0.49284    1.000
    Si38     Si       0.12864    0.00925    0.49010    1.000
    Si39     Si       0.18247    0.04043    0.45591    1.000
    N40      N        0.20481    0.06461    0.42599    1.000
    N41      N        0.09788    0.02436    0.56475    1.000
    Si42     Si       0.07333    0.03106    0.52906    1.000
    Si43     Si       0.09097    0.05917    0.59387    1.000
    N44      N        0.99646    0.03812    0.56031    1.000
    N45      N        0.05524    0.05365    0.61785    1.000
    N46      N        0.21638    0.03884    0.54552    1.000
    Si47     Si       0.16392    0.04644    0.60917    1.000
    N48      N        0.16801    0.00914    0.58572    1.000
    N49      N        0.22937    0.01435    0.69431    1.000
    N50      N        0.98927    0.05036    0.73766    1.000
    N51      N        0.09737    0.04929    0.69329    1.000
    Si52     Si       0.03579    0.02234    0.64137    1.000
    N53      N        0.04353    0.02335    0.72929    1.000
    N54      N        0.01654    0.05453    0.66895    1.000
    Si55     Si       0.07533    0.01387    0.70158    1.000
    Si56     Si       0.02207    0.05691    0.71217    1.000
    N57      N        0.17485    0.01949    0.73645    1.000
    Si58     Si       0.20995    0.03962    0.72516    1.000
    Si59     Si       0.22816    0.02695    0.65299    1.000
    N60      N        0.18871    0.04592    0.64465    1.000
    N61      N        0.12235    0.05420    0.62265    1.000
    N62      N        0.04276    0.00468    0.51884    1.000
    N63      N        0.01989    0.03644    0.79568    1.000
    N64      N        0.08339    0.04777    0.81470    1.000
    Si65     Si       0.01091    0.01837    0.75966    1.000
    Si66     Si       0.11719    0.02074    0.82822    1.000
    N67      N        0.23929    0.03159    0.75548    1.000
    Si68     Si       0.23535    0.03478    0.84616    1.000
    N69      N        0.12240    0.05440    0.75461    1.000
    N70      N        0.14478    0.05636    0.82099    1.000
    Si71     Si       0.13363    0.01220    0.75200    1.000
    Si72     Si       0.00961    0.05217    0.87726    1.000
    N73      N        0.08483    0.04388    0.92562    1.000
    Si74     Si       0.08272    0.04007    0.97160    1.000
    N75      N        0.03528    0.01624    0.87915    1.000
    N76      N        0.99642    0.00997    0.96425    1.000
    N77      N        0.13613    0.05635    0.88291    1.000
    N78      N        0.12367    0.05049    0.97146    1.000
    Si79     Si       0.20920    0.05820    0.92097    1.000
    N80      N        0.17626    0.01110    0.98720    1.000
    N81      N        0.17398    0.03462    0.92578    1.000
    Si82     Si       0.13235    0.05688    0.92641    1.000
    Si83     Si       0.17072    0.03173    0.88171    1.000
    N84      N        0.20887    0.05416    0.87535    1.000
    N85      N        0.03298    0.10361    0.02971    1.000
    N86      N        0.10367    0.10895    0.02243    1.000
    Si87     Si       0.06546    0.10933    0.00297    1.000
    N88      N        0.10084    0.07483    0.08336    1.000
    Si89     Si       0.01647    0.07175    0.00744    1.000
    Si90     Si       0.10920    0.11233    0.06558    1.000
    N91      N        0.19833    0.08063    0.09739    1.000
    Si92     Si       0.20091    0.09068    0.01638    1.000
    N93      N        0.21751    0.11720    0.04679    1.000
    Si94     Si       0.18885    0.12013    0.08092    1.000
    N95      N        0.99193    0.06761    0.12525    1.000
    N96      N        0.07069    0.08308    0.20674    1.000
    Si97     Si       0.10608    0.08611    0.18050    1.000
    Si98     Si       0.02941    0.09265    0.21684    1.000
    N99      N        0.06030    0.09014    0.13419    1.000
    Si100    Si       0.23054    0.10186    0.19874    1.000
    Si101    Si       0.16783    0.07289    0.23607    1.000
    N102     N        0.23033    0.09896    0.15538    1.000
    N103     N        0.13378    0.08488    0.21332    1.000
    N104     N        0.20653    0.06799    0.21548    1.000
    N105     N        0.01271    0.09674    0.33294    1.000
    N106     N        0.04174    0.09267    0.26188    1.000
    N107     N        0.08426    0.07900    0.34854    1.000
    Si108    Si       0.04258    0.08013    0.36112    1.000
    Si109    Si       0.01707    0.07655    0.29321    1.000
    Si110    Si       0.08227    0.09267    0.24910    1.000
    Si111    Si       0.17179    0.10778    0.30538    1.000
    N112     N        0.17245    0.10936    0.26131    1.000
    Si113    Si       0.12174    0.09881    0.36226    1.000
    N114     N        0.13628    0.12120    0.32859    1.000
    Si115    Si       0.99038    0.08007    0.47275    1.000
    N116     N        0.99462    0.11504    0.44775    1.000
    Si117    Si       0.07558    0.11396    0.41955    1.000
    Si118    Si       0.99891    0.10961    0.40562    1.000
    N119     N        0.08489    0.07838    0.44242    1.000
    N120     N        0.04060    0.10744    0.39393    1.000
    N121     N        0.10982    0.12446    0.39436    1.000
    N122     N        0.15471    0.06989    0.46854    1.000
    Si123    Si       0.18787    0.09620    0.40047    1.000
    Si124    Si       0.11361    0.07759    0.47472    1.000
    N125     N        0.15863    0.07668    0.37473    1.000
    N126     N        0.22518    0.11290    0.38384    1.000
    N127     N        0.22957    0.12655    0.46349    1.000
    Si128    Si       0.08087    0.10550    0.53935    1.000
    N129     N        0.10194    0.09791    0.57562    1.000
    N130     N        0.00030    0.11250    0.56726    1.000
    Si131    Si       0.01413    0.07469    0.54441    1.000
    N132     N        0.10288    0.10927    0.50193    1.000
    N133     N        0.05721    0.07003    0.54071    1.000
    N134     N        0.16873    0.08080    0.58288    1.000
    N135     N        0.20172    0.10163    0.52522    1.000
    Si136    Si       0.20570    0.07859    0.56159    1.000
    Si137    Si       0.13967    0.11624    0.58297    1.000
    N138     N        0.04281    0.09579    0.72236    1.000
    N139     N        0.07896    0.10281    0.66330    1.000
    Si140    Si       0.04243    0.08447    0.64662    1.000
    N141     N        0.10667    0.11635    0.72575    1.000
    N142     N        0.02258    0.11916    0.63176    1.000
    Si143    Si       0.98931    0.10908    0.60894    1.000
    Si144    Si       0.18694    0.08112    0.67099    1.000
    Si145    Si       0.11197    0.07295    0.65861    1.000
    N146     N        0.21013    0.07990    0.70713    1.000
    N147     N        0.14602    0.08638    0.68270    1.000
    Si148    Si       0.12195    0.07655    0.71746    1.000
    N149     N        0.19993    0.11368    0.64479    1.000
    N150     N        0.04362    0.09943    0.78548    1.000
    N151     N        0.02217    0.08046    0.84652    1.000
    N152     N        0.10957    0.11112    0.86164    1.000
    Si153    Si       0.02499    0.12166    0.75373    1.000
    Si154    Si       0.11314    0.07046    0.79271    1.000
    Si155    Si       0.04514    0.06703    0.81269    1.000
    N156     N        0.11400    0.11260    0.79619    1.000
    Si157    Si       0.14411    0.08543    0.85191    1.000
    N158     N        0.17957    0.11099    0.84594    1.000
    Si159    Si       0.21737    0.09331    0.85345    1.000
    N160     N        0.01643    0.07526    0.91271    1.000
    Si161    Si       0.05545    0.07655    0.93285    1.000
    N162     N        0.07756    0.11319    0.92572    1.000
    N163     N        0.05371    0.07353    0.97812    1.000
    Si164    Si       0.00275    0.11653    0.90942    1.000
    Si165    Si       0.11236    0.12111    0.90502    1.000
    Si166    Si       0.17601    0.11474    0.94961    1.000
    N167     N        0.21151    0.09928    0.93076    1.000
    N168     N        0.14184    0.09962    0.92909    1.000
    N169     N        0.17768    0.11971    0.99281    1.000
    N170     N        0.23979    0.12489    0.87163    1.000
    N171     N        0.08721    0.14592    0.08261    1.000
    N172     N        0.03452    0.17155    0.04802    1.000
    Si173    Si       0.01419    0.13354    0.05409    1.000
    Si174    Si       0.04908    0.18200    0.00867    1.000
    Si175    Si       0.05847    0.13112    0.11302    1.000
    N176     N        0.01854    0.13166    0.09592    1.000
    N177     N        0.14189    0.16940    0.00992    1.000
    N178     N        0.20389    0.15067    0.10933    1.000
    Si179    Si       0.14268    0.12588    0.01935    1.000
    N180     N        0.15052    0.12288    0.06294    1.000
    N181     N        0.05783    0.17259    0.20531    1.000
    Si182    Si       0.08854    0.16693    0.17567    1.000
    Si183    Si       0.02480    0.15871    0.17750    1.000
    N184     N        0.05678    0.15802    0.14554    1.000
    N185     N        0.99329    0.12892    0.16105    1.000
    N186     N        0.11126    0.13096    0.17812    1.000
    N187     N        0.00911    0.13235    0.21881    1.000
    Si188    Si       0.23645    0.13618    0.13534    1.000
    Si189    Si       0.12997    0.12757    0.21875    1.000
    Si190    Si       0.23040    0.17511    0.19464    1.000
    N191     N        0.15461    0.16200    0.22457    1.000
    N192     N        0.21469    0.13889    0.21303    1.000
    N193     N        0.07898    0.16238    0.30965    1.000
    N194     N        0.00928    0.16502    0.33619    1.000
    Si195    Si       0.99799    0.15505    0.25403    1.000
    Si196    Si       0.09820    0.17176    0.26975    1.000
    N197     N        0.02703    0.18140    0.26983    1.000
    N198     N        0.09929    0.13250    0.24941    1.000
    Si199    Si       0.19794    0.15245    0.44606    1.000
    Si200    Si       0.98627    0.13134    0.32396    1.000
    Si201    Si       0.23725    0.14942    0.29365    1.000
    Si202    Si       0.12092    0.16076    0.32530    1.000
    Si203    Si       0.22468    0.14242    0.35337    1.000
    N204     N        0.21138    0.17465    0.26811    1.000
    N205     N        0.13945    0.17911    0.35937    1.000
    N206     N        0.20483    0.13239    0.31775    1.000
    N207     N        0.20587    0.17815    0.36707    1.000
    N208     N        0.13554    0.18307    0.28806    1.000
    Si209    Si       0.18857    0.14737    0.24521    1.000
    N210     N        0.07254    0.14668    0.44935    1.000
    Si211    Si       0.08248    0.14653    0.49453    1.000
    Si212    Si       0.99908    0.18238    0.37437    1.000
    Si213    Si       0.05271    0.18272    0.43580    1.000
    N214     N        0.01646    0.18355    0.45851    1.000
    N215     N        0.17377    0.13546    0.41443    1.000
    Si216    Si       0.14054    0.15739    0.39939    1.000
    N217     N        0.16899    0.15098    0.47994    1.000
    Si218    Si       0.01879    0.14984    0.54777    1.000
    N219     N        0.05337    0.13877    0.52628    1.000
    N220     N        0.03381    0.17208    0.58160    1.000
    Si221    Si       0.11020    0.17197    0.61622    1.000
    N222     N        0.98701    0.17190    0.52815    1.000
    N223     N        0.10890    0.18101    0.50201    1.000
    Si224    Si       0.18266    0.14124    0.52049    1.000
    N225     N        0.21411    0.16971    0.52951    1.000
    N226     N        0.14973    0.14311    0.54830    1.000
    N227     N        0.20403    0.17779    0.61154    1.000
    Si228    Si       0.13102    0.18228    0.54626    1.000
    N229     N        0.14184    0.14196    0.61814    1.000
    Si230    Si       0.03170    0.16352    0.62356    1.000
    N231     N        0.05088    0.16069    0.70578    1.000
    N232     N        0.07190    0.17133    0.63867    1.000
    N233     N        0.99460    0.18377    0.64041    1.000
    N234     N        0.23062    0.14973    0.69445    1.000
    Si235    Si       0.18012    0.15224    0.63646    1.000
    N236     N        0.09933    0.17961    0.57401    1.000
    Si237    Si       0.07065    0.12260    0.70167    1.000
    N238     N        0.02771    0.16496    0.76959    1.000
    Si239    Si       0.03657    0.16080    0.85226    1.000
    N240     N        0.07019    0.15497    0.82699    1.000
    N241     N        0.09778    0.17235    0.76216    1.000
    Si242    Si       0.10924    0.13878    0.82893    1.000
    N243     N        0.00138    0.14798    0.82894    1.000
    Si244    Si       0.99314    0.17510    0.79703    1.000
    Si245    Si       0.06615    0.17706    0.79034    1.000
    Si246    Si       0.17506    0.15430    0.83686    1.000
    Si247    Si       0.20128    0.15436    0.76737    1.000
    N248     N        0.13772    0.17222    0.82047    1.000
    N249     N        0.21040    0.15946    0.80930    1.000
    Si250    Si       0.12354    0.13551    0.75989    1.000
    N251     N        0.16548    0.13505    0.75704    1.000
    Si252    Si       0.05510    0.14768    0.94081    1.000
    N253     N        0.03227    0.14048    0.88820    1.000
    N254     N        0.06392    0.14879    0.98373    1.000
    N255     N        0.01250    0.13554    0.94600    1.000
    N256     N        0.12304    0.16322    0.90203    1.000
    N257     N        0.18330    0.17920    0.87163    1.000
    Si258    Si       0.18078    0.16576    0.98990    1.000
    N259     N        0.22059    0.18434    0.99158    1.000
    N260     N        0.17585    0.15952    0.94592    1.000
    N261     N        0.23769    0.13021    0.75789    1.000
    Si262    Si       0.98976    0.17066    0.95961    1.000
    N263     N        0.07970    0.20680    0.02626    1.000
    N264     N        0.06077    0.21511    0.09031    1.000
    Si265    Si       0.01965    0.20544    0.07223    1.000
    Si266    Si       0.99844    0.23270    0.00305    1.000
    N267     N        0.00085    0.23899    0.10883    1.000
    N268     N        0.01872    0.24139    0.04208    1.000
    Si269    Si       0.08465    0.18690    0.06705    1.000
    Si270    Si       0.21114    0.19352    0.10655    1.000
    Si271    Si       0.14633    0.23499    0.09385    1.000
    N272     N        0.12525    0.20523    0.06975    1.000
    N273     N        0.21879    0.20129    0.06305    1.000
    Si274    Si       0.12471    0.20592    0.02281    1.000
    N275     N        0.14570    0.23524    0.00015    1.000
    N276     N        0.18031    0.22128    0.11911    1.000
    N277     N        0.02217    0.23256    0.22497    1.000
    N278     N        0.00259    0.19472    0.17334    1.000
    Si279    Si       0.04642    0.19973    0.23686    1.000
    Si280    Si       0.01232    0.23240    0.15001    1.000
    N281     N        0.11841    0.19857    0.17859    1.000
    Si282    Si       0.15667    0.20316    0.20498    1.000
    Si283    Si       0.11694    0.24047    0.17028    1.000
    N284     N        0.17334    0.22580    0.24171    1.000
    Si285    Si       0.19220    0.23377    0.15874    1.000
    N286     N        0.19314    0.19493    0.17907    1.000
    Si287    Si       0.21275    0.24372    0.05899    1.000
    N288     N        0.05144    0.21985    0.33123    1.000
    N289     N        0.08332    0.21092    0.25385    1.000
    Si290    Si       0.15431    0.22342    0.28261    1.000
    Si291    Si       0.17417    0.20496    0.35426    1.000
    N292     N        0.17796    0.22866    0.31922    1.000
    Si293    Si       0.21765    0.21464    0.25175    1.000
    Si294    Si       0.05405    0.22210    0.37483    1.000
    N295     N        0.07862    0.21633    0.45182    1.000
    N296     N        0.09126    0.24075    0.38677    1.000
    N297     N        0.03954    0.18672    0.39428    1.000
    Si298    Si       0.11281    0.22682    0.42307    1.000
    Si299    Si       0.20162    0.22667    0.46898    1.000
    N300     N        0.21225    0.19301    0.44279    1.000
    Si301    Si       0.21680    0.20503    0.39957    1.000
    N302     N        0.18271    0.23064    0.38880    1.000
    N303     N        0.13239    0.18803    0.42851    1.000
    N304     N        0.16061    0.22295    0.47863    1.000
    Si305    Si       0.04129    0.18219    0.31095    1.000
    Si306    Si       0.14303    0.18412    0.47209    1.000
    Si307    Si       0.08622    0.21773    0.49547    1.000
    N308     N        0.05653    0.21817    0.52881    1.000
    Si309    Si       0.06200    0.20284    0.56919    1.000
    N310     N        0.06739    0.23801    0.59564    1.000
    N311     N        0.99343    0.23631    0.49783    1.000
    N312     N        0.19712    0.19228    0.74468    1.000
    N313     N        0.17482    0.17967    0.67321    1.000
    N314     N        0.16431    0.20916    0.54833    1.000
    Si315    Si       0.20580    0.21075    0.53682    1.000
    Si316    Si       0.21582    0.21868    0.60650    1.000
    N317     N        0.21721    0.23887    0.50659    1.000
    N318     N        0.23458    0.22754    0.56661    1.000
    Si319    Si       0.20881    0.18576    0.70201    1.000
    Si320    Si       0.07253    0.19032    0.67788    1.000
    N321     N        0.03676    0.21773    0.68341    1.000
    Si322    Si       0.99472    0.20564    0.67905    1.000
    Si323    Si       0.02719    0.18924    0.73187    1.000
    N324     N        0.11371    0.19220    0.69342    1.000
    N325     N        0.12334    0.20968    0.63010    1.000
    Si326    Si       0.14527    0.21019    0.67028    1.000
    Si327    Si       0.11130    0.20533    0.73746    1.000
    N328     N        0.23213    0.22073    0.69471    1.000
    N329     N        0.08143    0.21690    0.80661    1.000
    Si330    Si       0.06366    0.22739    0.84416    1.000
    N331     N        0.03248    0.20298    0.86301    1.000
    N332     N        0.02750    0.23134    0.75089    1.000
    Si333    Si       0.18395    0.23054    0.75976    1.000
    Si334    Si       0.12518    0.21219    0.80598    1.000
    N335     N        0.14219    0.22010    0.76508    1.000
    N336     N        0.20261    0.23695    0.79953    1.000
    N337     N        0.09657    0.22431    0.87201    1.000
    Si338    Si       0.02649    0.20369    0.90580    1.000
    Si339    Si       0.09932    0.20038    0.90678    1.000
    N340     N        0.01723    0.19723    0.98519    1.000
    N341     N        0.06234    0.18892    0.92593    1.000
    N342     N        0.13482    0.21342    0.92895    1.000
    N343     N        0.20349    0.21341    0.91924    1.000
    Si344    Si       0.21356    0.20892    0.87670    1.000
    Si345    Si       0.23260    0.19603    0.94975    1.000
    Si346    Si       0.16333    0.18390    0.91201    1.000
    N347     N        0.08955    0.27846    0.03488    1.000
    N348     N        0.06096    0.28505    0.09391    1.000
    Si349    Si       0.99816    0.26871    0.07320    1.000
    Si350    Si       0.07237    0.24782    0.11467    1.000
    Si351    Si       0.05965    0.24521    0.02757    1.000
    Si352    Si       0.09252    0.30360    0.06998    1.000
    N353     N        0.20436    0.28756    0.22438    1.000
    N354     N        0.16955    0.25637    0.06414    1.000
    N355     N        0.21534    0.25701    0.01661    1.000
    Si356    Si       0.16462    0.29665    0.05579    1.000
    Si357    Si       0.17747    0.26437    0.00081    1.000
    N358     N        0.22532    0.26055    0.16304    1.000
    N359     N        0.05242    0.24822    0.15290    1.000
    Si360    Si       0.06353    0.27802    0.18403    1.000
    N361     N        0.09573    0.25821    0.20359    1.000
    N362     N        0.03215    0.29642    0.20920    1.000
    Si363    Si       0.99501    0.29628    0.18215    1.000
    Si364    Si       0.02513    0.27058    0.24316    1.000
    N365     N        0.15904    0.24686    0.18344    1.000
    Si366    Si       0.16636    0.26561    0.22261    1.000
    N367     N        0.16159    0.30325    0.01286    1.000
    N368     N        0.11522    0.24875    0.12602    1.000
    N369     N        0.05825    0.27224    0.27094    1.000
    Si370    Si       0.04577    0.26119    0.31563    1.000
    N371     N        0.00400    0.26801    0.32278    1.000
    N372     N        0.06522    0.28955    0.34425    1.000
    Si373    Si       0.09320    0.25229    0.25001    1.000
    Si374    Si       0.20555    0.26116    0.31023    1.000
    N375     N        0.12794    0.25947    0.27630    1.000
    N376     N        0.23242    0.26345    0.34431    1.000
    Si377    Si       0.14732    0.29943    0.28488    1.000
    N378     N        0.18545    0.30030    0.30563    1.000
    N379     N        0.23227    0.24716    0.27610    1.000
    N380     N        0.02405    0.25180    0.38699    1.000
    Si381    Si       0.08992    0.28251    0.38023    1.000
    N382     N        0.00049    0.29236    0.43751    1.000
    Si383    Si       0.02703    0.29042    0.40532    1.000
    Si384    Si       0.14610    0.26515    0.47604    1.000
    N385     N        0.18945    0.29883    0.38502    1.000
    N386     N        0.13573    0.26135    0.43296    1.000
    N387     N        0.20172    0.26202    0.44303    1.000
    Si388    Si       0.17369    0.26691    0.41091    1.000
    Si389    Si       0.03373    0.26533    0.59464    1.000
    Si390    Si       0.02766    0.24900    0.52227    1.000
    Si391    Si       0.08629    0.29327    0.50135    1.000
    N392     N        0.01097    0.24992    0.56268    1.000
    N393     N        0.04488    0.28084    0.49933    1.000
    N394     N        0.10822    0.25621    0.49807    1.000
    N395     N        0.22188    0.29783    0.54605    1.000
    N396     N        0.12624    0.27818    0.60841    1.000
    N397     N        0.14479    0.25437    0.67424    1.000
    N398     N        0.18830    0.24713    0.61945    1.000
    Si399    Si       0.10044    0.24746    0.62547    1.000
    N400     N        0.08272    0.26290    0.66150    1.000
    N401     N        0.03650    0.28164    0.70866    1.000
    Si402    Si       0.04015    0.25876    0.67078    1.000
    N403     N        0.01567    0.26376    0.63721    1.000
    Si404    Si       0.05632    0.26059    0.74000    1.000
    Si405    Si       0.10875    0.26800    0.69536    1.000
    N406     N        0.23188    0.28974    0.68172    1.000
    Si407    Si       0.16047    0.27413    0.63550    1.000
    N408     N        0.18773    0.26489    0.73299    1.000
    Si409    Si       0.22774    0.25894    0.71271    1.000
    N410     N        0.12108    0.30024    0.72194    1.000
    N411     N        0.09060    0.24124    0.72411    1.000
    N412     N        0.04338    0.26470    0.83878    1.000
    N413     N        0.00332    0.29078    0.78513    1.000
    N414     N        0.06936    0.28996    0.76878    1.000
    Si415    Si       0.04304    0.29178    0.80276    1.000
    Si416    Si       0.99392    0.24834    0.77382    1.000
    Si417    Si       0.18241    0.25987    0.83400    1.000
    N418     N        0.14204    0.24766    0.82993    1.000
    N419     N        0.20268    0.24962    0.87074    1.000
    Si420    Si       0.01216    0.26026    0.87108    1.000
    Si421    Si       0.03075    0.26642    0.95026    1.000
    N422     N        0.05546    0.25949    0.98530    1.000
    N423     N        0.09026    0.29180    0.87845    1.000
    Si424    Si       0.08692    0.28911    0.99018    1.000
    N425     N        0.03121    0.24573    0.91141    1.000
    N426     N        0.11025    0.27992    0.95545    1.000
    N427     N        0.99178    0.26132    0.97143    1.000
    N428     N        0.22202    0.29477    0.91669    1.000
    Si429    Si       0.12060    0.26055    0.86656    1.000
    Si430    Si       0.11437    0.29880    0.91699    1.000
    Si431    Si       0.19102    0.26150    0.91395    1.000
    N432     N        0.17891    0.26300    0.95702    1.000
    N433     N        0.14833    0.27686    0.89881    1.000
    Si434    Si       0.13878    0.24520    0.95721    1.000
    N435     N        0.18355    0.30342    0.83191    1.000
    N436     N        0.08539    0.34486    0.05664    1.000
    N437     N        0.04455    0.35272    0.10690    1.000
    N438     N        0.99509    0.33030    0.00136    1.000
    Si439    Si       0.09105    0.35628    0.01609    1.000
    N440     N        0.99100    0.31132    0.07678    1.000
    Si441    Si       0.14567    0.34248    0.10656    1.000
    N442     N        0.20126    0.32116    0.06742    1.000
    N443     N        0.13397    0.30867    0.08310    1.000
    Si444    Si       0.18928    0.32753    0.23165    1.000
    Si445    Si       0.19464    0.36148    0.05775    1.000
    Si446    Si       0.12202    0.34371    0.23191    1.000
    Si447    Si       0.04602    0.31351    0.12430    1.000
    N448     N        0.00674    0.31095    0.14303    1.000
    Si449    Si       0.09160    0.34880    0.16458    1.000
    Si450    Si       0.04576    0.33859    0.22246    1.000
    N451     N        0.07429    0.30946    0.15620    1.000
    N452     N        0.08282    0.33040    0.24261    1.000
    N453     N        0.10934    0.35801    0.12508    1.000
    N454     N        0.17908    0.34797    0.13310    1.000
    N455     N        0.15036    0.31071    0.24264    1.000
    N456     N        0.12683    0.34548    0.18836    1.000
    N457     N        0.19577    0.35217    0.19719    1.000
    Si458    Si       0.04766    0.33035    0.34358    1.000
    N459     N        0.04101    0.33056    0.29915    1.000
    Si460    Si       0.07739    0.31299    0.28168    1.000
    N461     N        0.08003    0.35487    0.35723    1.000
    Si462    Si       0.00827    0.36062    0.28841    1.000
    N463     N        0.11562    0.32297    0.30097    1.000
    Si464    Si       0.11874    0.33833    0.34248    1.000
    Si465    Si       0.21203    0.33564    0.29675    1.000
    N466     N        0.19402    0.35687    0.26299    1.000
    N467     N        0.12333    0.30844    0.37324    1.000
    N468     N        0.23355    0.32228    0.45069    1.000
    N469     N        0.01748    0.32137    0.37649    1.000
    N470     N        0.03708    0.34428    0.45546    1.000
    Si471    Si       0.07573    0.33570    0.44099    1.000
    N472     N        0.10198    0.32036    0.47279    1.000
    Si473    Si       0.01880    0.30817    0.47509    1.000
    Si474    Si       0.15817    0.32975    0.38784    1.000
    Si475    Si       0.14313    0.33197    0.46905    1.000
    N476     N        0.16536    0.33308    0.42978    1.000
    Si477    Si       0.20420    0.34882    0.43555    1.000
    N478     N        0.06849    0.30129    0.41332    1.000
    Si479    Si       0.22846    0.29846    0.36744    1.000
    N480     N        0.16202    0.30133    0.49453    1.000
    N481     N        0.01718    0.35844    0.24431    1.000
    Si482    Si       0.02597    0.34582    0.59019    1.000
    N483     N        0.10084    0.34392    0.58917    1.000
    Si484    Si       0.08159    0.34866    0.55071    1.000
    N485     N        0.09716    0.31003    0.54079    1.000
    N486     N        0.04232    0.30624    0.59262    1.000
    N487     N        0.98908    0.33319    0.72648    1.000
    Si488    Si       0.18574    0.31628    0.53116    1.000
    Si489    Si       0.18184    0.34020    0.59922    1.000
    N490     N        0.16182    0.31887    0.56743    1.000
    N491     N        0.22160    0.35672    0.59160    1.000
    Si492    Si       0.12101    0.30659    0.57646    1.000
    N493     N        0.19662    0.35714    0.52641    1.000
    N494     N        0.02571    0.33596    0.66160    1.000
    Si495    Si       0.02610    0.32285    0.70479    1.000
    N496     N        0.05927    0.34320    0.72465    1.000
    N497     N        0.18150    0.31289    0.63271    1.000
    Si498    Si       0.20467    0.32019    0.66850    1.000
    N499     N        0.17904    0.33009    0.70225    1.000
    Si500    Si       0.16421    0.30040    0.72919    1.000
    N501     N        0.22030    0.36142    0.66888    1.000
    N502     N        0.05518    0.32979    0.82364    1.000
    N503     N        0.10802    0.34977    0.77674    1.000
    Si504    Si       0.08601    0.35655    0.81307    1.000
    Si505    Si       0.05340    0.31225    0.86626    1.000
    Si506    Si       0.09279    0.32097    0.74607    1.000
    N507     N        0.11814    0.34895    0.84279    1.000
    Si508    Si       0.16168    0.34137    0.84523    1.000
    N509     N        0.16924    0.32337    0.76688    1.000
    Si510    Si       0.20015    0.32334    0.79743    1.000
    Si511    Si       0.16145    0.35631    0.91981    1.000
    Si512    Si       0.02910    0.34133    0.97681    1.000
    N513     N        0.02180    0.31121    0.94566    1.000
    N514     N        0.06008    0.35169    0.88753    1.000
    Si515    Si       0.99651    0.32427    0.91199    1.000
    N516     N        0.06789    0.32893    0.99184    1.000
    Si517    Si       0.10290    0.35999    0.88035    1.000
    N518     N        0.12190    0.34191    0.91551    1.000
    Si519    Si       0.16739    0.34078    0.99165    1.000
    Si520    Si       0.22225    0.33350    0.93593    1.000
    N521     N        0.17974    0.35781    0.88024    1.000
    N522     N        0.18242    0.33842    0.95261    1.000
    N523     N        0.01012    0.30228    0.87719    1.000
    Si524    Si       0.01197    0.37930    0.09421    1.000
    N525     N        0.07739    0.39810    0.01170    1.000
    N526     N        0.09600    0.40817    0.08069    1.000
    Si527    Si       0.08161    0.36974    0.09238    1.000
    N528     N        0.99135    0.37344    0.05645    1.000
    N529     N        0.15459    0.37179    0.07366    1.000
    Si530    Si       0.13801    0.41241    0.07603    1.000
    N531     N        0.22504    0.38143    0.08336    1.000
    N532     N        0.13143    0.36653    0.99839    1.000
    N533     N        0.19878    0.36269    0.01442    1.000
    Si534    Si       0.23777    0.37333    0.99695    1.000
    N535     N        0.06009    0.36329    0.18890    1.000
    Si536    Si       0.05492    0.40346    0.18626    1.000
    N537     N        0.02346    0.41806    0.15913    1.000
    N538     N        0.23423    0.38439    0.15301    1.000
    N539     N        0.15667    0.40408    0.16706    1.000
    Si540    Si       0.10273    0.42150    0.24163    1.000
    Si541    Si       0.16271    0.36359    0.16918    1.000
    Si542    Si       0.21865    0.35745    0.12126    1.000
    Si543    Si       0.02777    0.41377    0.34118    1.000
    N544     N        0.01562    0.37130    0.33728    1.000
    N545     N        0.14982    0.37230    0.48066    1.000
    N546     N        0.15542    0.36001    0.35616    1.000
    N547     N        0.21765    0.36966    0.32268    1.000
    Si548    Si       0.18026    0.38970    0.33889    1.000
    N549     N        0.16138    0.40730    0.30331    1.000
    Si550    Si       0.16877    0.39309    0.26430    1.000
    N551     N        0.12994    0.38318    0.24602    1.000
    N552     N        0.09713    0.36861    0.42437    1.000
    Si553    Si       0.07920    0.39199    0.38319    1.000
    N554     N        0.04124    0.39547    0.40378    1.000
    Si555    Si       0.01478    0.37564    0.43321    1.000
    N556     N        0.00103    0.41808    0.44511    1.000
    N557     N        0.21232    0.38515    0.45820    1.000
    N558     N        0.21770    0.37041    0.39785    1.000
    Si559    Si       0.20595    0.40637    0.41914    1.000
    Si560    Si       0.12138    0.40539    0.43216    1.000
    N561     N        0.16307    0.41408    0.42222    1.000
    Si562    Si       0.18845    0.38892    0.49557    1.000
    Si563    Si       0.01925    0.39655    0.53655    1.000
    N564     N        0.10107    0.38479    0.53322    1.000
    N565     N        0.99513    0.37848    0.50281    1.000
    N566     N        0.99193    0.40131    0.57174    1.000
    Si567    Si       0.02574    0.41676    0.59207    1.000
    N568     N        0.03839    0.38075    0.61315    1.000
    Si569    Si       0.23484    0.39490    0.61146    1.000
    Si570    Si       0.11645    0.37729    0.61174    1.000
    Si571    Si       0.12558    0.40162    0.50032    1.000
    Si572    Si       0.22855    0.37954    0.54448    1.000
    N573     N        0.22712    0.40834    0.51284    1.000
    N574     N        0.15962    0.37602    0.61524    1.000
    N575     N        0.03840    0.35844    0.54979    1.000
    N576     N        0.03936    0.39719    0.68242    1.000
    N577     N        0.09694    0.39827    0.71688    1.000
    Si578    Si       0.05557    0.38736    0.72126    1.000
    N579     N        0.09607    0.37802    0.65008    1.000
    Si580    Si       0.05286    0.36869    0.65186    1.000
    Si581    Si       0.11384    0.41025    0.67524    1.000
    Si582    Si       0.17064    0.40737    0.64149    1.000
    Si583    Si       0.19004    0.37348    0.70090    1.000
    N584     N        0.15611    0.38950    0.68013    1.000
    N585     N        0.20167    0.40190    0.73038    1.000
    N586     N        0.24058    0.41593    0.57197    1.000
    Si587    Si       0.09247    0.41929    0.55551    1.000
    N588     N        0.07334    0.39794    0.82452    1.000
    N589     N        0.03994    0.40448    0.75849    1.000
    Si590    Si       0.99739    0.39934    0.76140    1.000
    Si591    Si       0.20788    0.39460    0.82483    1.000
    N592     N        0.14676    0.40418    0.76701    1.000
    N593     N        0.17980    0.36435    0.81237    1.000
    Si594    Si       0.14984    0.36305    0.77958    1.000
    Si595    Si       0.06492    0.40942    0.97154    1.000
    N596     N        0.04160    0.37573    0.95315    1.000
    Si597    Si       0.03598    0.38101    0.90953    1.000
    N598     N        0.99557    0.36903    0.90236    1.000
    N599     N        0.10443    0.41848    0.95564    1.000
    N600     N        0.10982    0.40270    0.88397    1.000
    Si601    Si       0.20128    0.39470    0.89193    1.000
    Si602    Si       0.12918    0.40944    0.99263    1.000
    N603     N        0.22942    0.41200    0.97538    1.000
    N604     N        0.16515    0.39911    0.92765    1.000
    N605     N        0.23539    0.36994    0.90808    1.000
    N606     N        0.20157    0.42119    0.85820    1.000
    Si607    Si       0.12721    0.42013    0.91810    1.000
    N608     N        0.05863    0.45963    0.05324    1.000
    Si609    Si       0.01982    0.44682    0.06037    1.000
    N610     N        0.99924    0.43294    0.02552    1.000
    Si611    Si       0.08596    0.42767    0.04302    1.000
    Si612    Si       0.22690    0.42068    0.22166    1.000
    Si613    Si       0.23446    0.44449    0.00855    1.000
    N614     N        0.20466    0.43321    0.03957    1.000
    Si615    Si       0.16749    0.45048    0.02467    1.000
    N616     N        0.16936    0.43491    0.09477    1.000
    Si617    Si       0.15012    0.47141    0.10870    1.000
    N618     N        0.12984    0.42943    0.03463    1.000
    N619     N        0.23206    0.44560    0.11366    1.000
    Si620    Si       0.21150    0.42454    0.08370    1.000
    N621     N        0.05723    0.47396    0.12580    1.000
    Si622    Si       0.05118    0.43061    0.13020    1.000
    Si623    Si       0.03500    0.45566    0.23317    1.000
    N624     N        0.99434    0.44339    0.24173    1.000
    N625     N        0.06231    0.42299    0.22351    1.000
    N626     N        0.14081    0.46605    0.15057    1.000
    Si627    Si       0.16188    0.46056    0.23369    1.000
    Si628    Si       0.12649    0.43300    0.17127    1.000
    N629     N        0.23485    0.44452    0.18631    1.000
    N630     N        0.18695    0.42239    0.23677    1.000
    N631     N        0.12448    0.44694    0.21421    1.000
    N632     N        0.02639    0.42002    0.09476    1.000
    N633     N        0.08465    0.41984    0.15828    1.000
    Si634    Si       0.06146    0.45676    0.29850    1.000
    N635     N        0.09863    0.43857    0.28222    1.000
    N636     N        0.02744    0.42984    0.30092    1.000
    Si637    Si       0.09179    0.45774    0.36224    1.000
    N638     N        0.00083    0.43539    0.36682    1.000
    N639     N        0.23711    0.43347    0.43239    1.000
    N640     N        0.13160    0.45718    0.34387    1.000
    Si641    Si       0.13684    0.44218    0.30309    1.000
    Si642    Si       0.21808    0.45418    0.34885    1.000
    N643     N        0.15938    0.46702    0.27608    1.000
    N644     N        0.18864    0.42484    0.36578    1.000
    N645     N        0.23835    0.43551    0.31693    1.000
    N646     N        0.05717    0.47652    0.48557    1.000
    N647     N        0.03262    0.47027    0.41851    1.000
    Si648    Si       0.01739    0.43339    0.40690    1.000
    Si649    Si       0.10128    0.46592    0.48258    1.000
    N650     N        0.10888    0.42443    0.46811    1.000
    N651     N        0.10965    0.42528    0.39369    1.000
    Si652    Si       0.15200    0.43746    0.38652    1.000
    N653     N        0.16216    0.47936    0.39369    1.000
    N654     N        0.06818    0.42141    0.35124    1.000
    N655     N        0.00831    0.44025    0.51327    1.000
    Si656    Si       0.05114    0.45741    0.52520    1.000
    N657     N        0.09751    0.45173    0.52561    1.000
    N658     N        0.04872    0.42427    0.55665    1.000
    N659     N        0.14279    0.44035    0.64746    1.000
    N660     N        0.11075    0.41589    0.59402    1.000
    Si661    Si       0.16989    0.45653    0.53616    1.000
    N662     N        0.16518    0.45467    0.57967    1.000
    Si663    Si       0.13103    0.45393    0.60697    1.000
    Si664    Si       0.20891    0.44662    0.58509    1.000
    N665     N        0.21513    0.46483    0.54393    1.000
    N666     N        0.16151    0.42102    0.51583    1.000
    N667     N        0.03217    0.44857    0.61963    1.000
    Si668    Si       0.04046    0.43491    0.66219    1.000
    N669     N        0.01123    0.46077    0.68317    1.000
    N670     N        0.08251    0.44207    0.66992    1.000
    Si671    Si       0.15307    0.46624    0.68229    1.000
    N672     N        0.14307    0.44614    0.71921    1.000
    N673     N        0.20698    0.42538    0.62527    1.000
    Si674    Si       0.22161    0.46135    0.64673    1.000
    Si675    Si       0.99578    0.48211    0.52522    1.000
    N676     N        0.19528    0.47682    0.67830    1.000
    Si677    Si       0.11408    0.42435    0.74637    1.000
    N678     N        0.09036    0.44806    0.77301    1.000
    N679     N        0.03284    0.45218    0.81405    1.000
    N680     N        0.08680    0.46469    0.85678    1.000
    Si681    Si       0.99133    0.44487    0.81990    1.000
    Si682    Si       0.05795    0.42600    0.79068    1.000
    Si683    Si       0.07711    0.42096    0.86126    1.000
    Si684    Si       0.21326    0.46534    0.79606    1.000
    N685     N        0.18186    0.47142    0.76552    1.000
    N686     N        0.21783    0.42204    0.79134    1.000
    Si687    Si       0.17387    0.43140    0.74682    1.000
    Si688    Si       0.21626    0.45859    0.87278    1.000
    N689     N        0.16531    0.43247    0.98418    1.000
    N690     N        0.21672    0.43044    0.91683    1.000
    N691     N        0.04770    0.42159    0.89552    1.000
    N692     N        0.03900    0.44402    0.96213    1.000
    N693     N        0.99991    0.46829    0.90631    1.000
    Si694    Si       0.00184    0.44809    0.98528    1.000
    Si695    Si       0.04241    0.45834    0.92075    1.000
    N696     N        0.13804    0.46058    0.90979    1.000
    Si697    Si       0.19184    0.42475    0.95246    1.000
    N698     N        0.05965    0.52152    0.07796    1.000
    Si699    Si       0.01754    0.51433    0.06909    1.000
    Si700    Si       0.07636    0.48320    0.08839    1.000
    N701     N        0.15319    0.53191    0.15661    1.000
    Si702    Si       0.14454    0.51149    0.06010    1.000
    N703     N        0.17135    0.50851    0.09477    1.000
    N704     N        0.16678    0.49390    0.02774    1.000
    N705     N        0.11826    0.48183    0.08239    1.000
    N706     N        0.99518    0.47842    0.07746    1.000
    N707     N        0.03709    0.48410    0.20167    1.000
    N708     N        0.09578    0.51459    0.17086    1.000
    Si709    Si       0.02292    0.52440    0.20537    1.000
    Si710    Si       0.05562    0.49515    0.16467    1.000
    N711     N        0.02931    0.53058    0.16218    1.000
    Si712    Si       0.13677    0.49699    0.17831    1.000
    N713     N        0.22468    0.52167    0.13449    1.000
    N714     N        0.16364    0.50016    0.21449    1.000
    Si715    Si       0.18404    0.53445    0.12737    1.000
    Si716    Si       0.03445    0.51290    0.33898    1.000
    Si717    Si       0.05844    0.52358    0.27094    1.000
    N718     N        0.99659    0.49934    0.35233    1.000
    N719     N        0.04812    0.48035    0.26519    1.000
    N720     N        0.09917    0.52782    0.27859    1.000
    N721     N        0.06383    0.48034    0.33332    1.000
    N722     N        0.13986    0.52678    0.33610    1.000
    Si723    Si       0.15740    0.49130    0.35252    1.000
    Si724    Si       0.18814    0.49811    0.28828    1.000
    N725     N        0.22469    0.49918    0.26789    1.000
    N726     N        0.19604    0.48666    0.33069    1.000
    N727     N        0.16721    0.53385    0.27165    1.000
    Si728    Si       0.02796    0.49160    0.45840    1.000
    N729     N        0.04523    0.52676    0.44114    1.000
    Si730    Si       0.05481    0.50464    0.40340    1.000
    N731     N        0.09315    0.48688    0.39534    1.000
    N732     N        0.99292    0.49728    0.48582    1.000
    Si733    Si       0.15503    0.51907    0.48339    1.000
    N734     N        0.12574    0.49401    0.46054    1.000
    Si735    Si       0.12887    0.50012    0.41519    1.000
    Si736    Si       0.22814    0.53856    0.45873    1.000
    Si737    Si       0.02686    0.48923    0.59469    1.000
    N738     N        0.04596    0.52360    0.61033    1.000
    N739     N        0.02974    0.48667    0.55119    1.000
    N740     N        0.10380    0.48572    0.61450    1.000
    Si741    Si       0.11095    0.52747    0.60337    1.000
    N742     N        0.23733    0.51793    0.71586    1.000
    Si743    Si       0.21085    0.50551    0.52802    1.000
    N744     N        0.15225    0.52674    0.58956    1.000
    N745     N        0.17066    0.49452    0.51398    1.000
    Si746    Si       0.19317    0.51808    0.60471    1.000
    N747     N        0.22544    0.48340    0.60822    1.000
    N748     N        0.20847    0.52995    0.56430    1.000
    N749     N        0.23811    0.52802    0.50050    1.000
    Si750    Si       0.03116    0.49577    0.70089    1.000
    N751     N        0.06137    0.50872    0.67369    1.000
    N752     N        0.00198    0.52861    0.71181    1.000
    Si753    Si       0.09141    0.48376    0.65575    1.000
    Si754    Si       0.12933    0.52369    0.71221    1.000
    Si755    Si       0.20093    0.52004    0.69064    1.000
    N756     N        0.12461    0.49852    0.67820    1.000
    N757     N        0.16977    0.52541    0.72233    1.000
    N758     N        0.19816    0.53274    0.64521    1.000
    N759     N        0.04372    0.49194    0.74386    1.000
    N760     N        0.07170    0.50908    0.80266    1.000
    N761     N        0.03230    0.51230    0.85848    1.000
    Si762    Si       0.08284    0.48916    0.76487    1.000
    Si763    Si       0.00806    0.51668    0.75644    1.000
    Si764    Si       0.05435    0.48381    0.83380    1.000
    N765     N        0.03550    0.54180    0.96264    1.000
    N766     N        0.20377    0.48176    0.83523    1.000
    N767     N        0.11793    0.50857    0.75217    1.000
    Si768    Si       0.16194    0.51068    0.76181    1.000
    Si769    Si       0.19938    0.52498    0.83236    1.000
    N770     N        0.18165    0.53479    0.79555    1.000
    Si771    Si       0.99603    0.49594    0.87443    1.000
    N772     N        0.07081    0.49094    0.91852    1.000
    Si773    Si       0.06968    0.53118    0.93674    1.000
    Si774    Si       0.10459    0.48484    0.89115    1.000
    Si775    Si       0.00279    0.52841    0.98979    1.000
    Si776    Si       0.18892    0.51158    0.99406    1.000
    N777     N        0.13383    0.51757    0.89182    1.000
    Si778    Si       0.16493    0.49466    0.91484    1.000
    N779     N        0.16509    0.50736    0.95677    1.000
    N780     N        0.20594    0.49564    0.90051    1.000
    N781     N        0.22280    0.48329    0.99143    1.000
    Si782    Si       0.08761    0.55568    0.07292    1.000
    N783     N        0.99870    0.54491    0.09462    1.000
    N784     N        0.06942    0.59203    0.05893    1.000
    Si785    Si       0.99120    0.56876    0.05987    1.000
    N786     N        0.11129    0.56636    0.10894    1.000
    Si787    Si       0.14219    0.59312    0.09648    1.000
    N788     N        0.12180    0.54511    0.04724    1.000
    Si789    Si       0.14242    0.57359    0.02339    1.000
    N790     N        0.17667    0.57847    0.11911    1.000
    N791     N        0.16936    0.55468    0.99632    1.000
    N792     N        0.04620    0.54604    0.23377    1.000
    Si793    Si       0.04802    0.58844    0.23780    1.000
    Si794    Si       0.00611    0.55737    0.13570    1.000
    N795     N        0.09062    0.58299    0.16807    1.000
    Si796    Si       0.11301    0.55097    0.14995    1.000
    N797     N        0.03375    0.59212    0.12922    1.000
    N798     N        0.14151    0.56934    0.21134    1.000
    N799     N        0.23438    0.59216    0.16319    1.000
    Si800    Si       0.22463    0.59679    0.20642    1.000
    N801     N        0.21217    0.55962    0.22854    1.000
    Si802    Si       0.17080    0.54022    0.22969    1.000
    N803     N        0.01057    0.53792    0.03215    1.000
    Si804    Si       0.02126    0.58063    0.31072    1.000
    N805     N        0.03382    0.54049    0.30468    1.000
    N806     N        0.10182    0.57665    0.36532    1.000
    N807     N        0.17130    0.58432    0.35341    1.000
    Si808    Si       0.13429    0.54413    0.29697    1.000
    N809     N        0.12783    0.58751    0.29755    1.000
    Si810    Si       0.13896    0.55814    0.36761    1.000
    N811     N        0.19285    0.59357    0.41533    1.000
    N812     N        0.07307    0.57472    0.48216    1.000
    Si813    Si       0.06048    0.57581    0.37765    1.000
    Si814    Si       0.04312    0.56675    0.45305    1.000
    N815     N        0.01089    0.58679    0.48000    1.000
    N816     N        0.04206    0.59065    0.41567    1.000
    N817     N        0.04950    0.53550    0.37308    1.000
    Si818    Si       0.16346    0.56836    0.43315    1.000
    Si819    Si       0.11470    0.58161    0.49314    1.000
    N820     N        0.18420    0.53911    0.45868    1.000
    N821     N        0.14244    0.54084    0.40678    1.000
    N822     N        0.13842    0.59314    0.45861    1.000
    N823     N        0.10436    0.55638    0.56747    1.000
    N824     N        0.20481    0.57137    0.69413    1.000
    N825     N        0.22003    0.58376    0.60654    1.000
    N826     N        0.16861    0.58562    0.56157    1.000
    Si827    Si       0.21094    0.57294    0.56736    1.000
    N828     N        0.13555    0.54877    0.50975    1.000
    Si829    Si       0.14342    0.55061    0.55105    1.000
    Si830    Si       0.01261    0.56999    0.69977    1.000
    N831     N        0.03605    0.57362    0.66321    1.000
    N832     N        0.10270    0.55294    0.63699    1.000
    Si833    Si       0.06081    0.54327    0.64635    1.000
    Si834    Si       0.11264    0.58813    0.73929    1.000
    N835     N        0.12304    0.56711    0.70131    1.000
    N836     N        0.16116    0.59176    0.63715    1.000
    Si837    Si       0.12355    0.58405    0.65910    1.000
    Si838    Si       0.20328    0.57630    0.64732    1.000
    Si839    Si       0.16790    0.57842    0.71444    1.000
    N840     N        0.06429    0.57143    0.83419    1.000
    N841     N        0.08107    0.57140    0.76349    1.000
    N842     N        0.01616    0.55475    0.77330    1.000
    Si843    Si       0.08188    0.55008    0.80076    1.000
    Si844    Si       0.10301    0.59128    0.84188    1.000
    Si845    Si       0.03526    0.59566    0.76866    1.000
    Si846    Si       0.04363    0.55258    0.86650    1.000
    N847     N        0.12238    0.56188    0.81734    1.000
    Si848    Si       0.15915    0.57449    0.79751    1.000
    N849     N        0.18403    0.55521    0.86156    1.000
    N850     N        0.15264    0.58430    0.75545    1.000
    N851     N        0.24018    0.59210    0.74891    1.000
    N852     N        0.00785    0.57901    0.87241    1.000
    Si853    Si       0.01940    0.58233    0.96304    1.000
    N854     N        0.06563    0.55893    0.90356    1.000
    N855     N        0.16810    0.57127    0.92722    1.000
    N856     N        0.10556    0.54489    0.95612    1.000
    N857     N        0.12226    0.58854    0.88031    1.000
    Si858    Si       0.14871    0.54793    0.95789    1.000
    Si859    Si       0.14993    0.55902    0.88891    1.000
    Si860    Si       0.08565    0.59818    0.90463    1.000
    N861     N        0.23838    0.53849    0.95769    1.000
    Si862    Si       0.04431    0.61088    0.09012    1.000
    N863     N        0.00831    0.60962    0.06707    1.000
    Si864    Si       0.07578    0.61171    0.02186    1.000
    N865     N        0.05789    0.65178    0.09717    1.000
    N866     N        0.11537    0.60158    0.00319    1.000
    N867     N        0.21910    0.63994    0.02129    1.000
    Si868    Si       0.19649    0.62588    0.05596    1.000
    N869     N        0.22372    0.61363    0.08924    1.000
    N870     N        0.12872    0.63325    0.10545    1.000
    N871     N        0.15987    0.59919    0.05583    1.000
    Si872    Si       0.20823    0.60591    0.12983    1.000
    N873     N        0.02569    0.60546    0.20298    1.000
    N874     N        0.05732    0.64961    0.16997    1.000
    Si875    Si       0.05141    0.60828    0.16722    1.000
    N876     N        0.08965    0.60395    0.23630    1.000
    N877     N        0.19905    0.63151    0.21110    1.000
    N878     N        0.18846    0.64279    0.14248    1.000
    N879     N        0.12431    0.63903    0.18405    1.000
    N880     N        0.06488    0.65586    0.02385    1.000
    Si881    Si       0.11429    0.59934    0.20011    1.000
    N882     N        0.08422    0.63294    0.29535    1.000
    Si883    Si       0.04454    0.64416    0.28358    1.000
    Si884    Si       0.04553    0.64407    0.35447    1.000
    Si885    Si       0.09828    0.60650    0.32853    1.000
    N886     N        0.02958    0.60486    0.27439    1.000
    N887     N        0.05128    0.60094    0.34072    1.000
    Si888    Si       0.11360    0.61539    0.26892    1.000
    N889     N        0.13114    0.63462    0.34053    1.000
    Si890    Si       0.16914    0.61923    0.32839    1.000
    N891     N        0.19960    0.62659    0.29525    1.000
    Si892    Si       0.18972    0.64354    0.25564    1.000
    N893     N        0.14600    0.64159    0.25299    1.000
    N894     N        0.19327    0.64399    0.35880    1.000
    Si895    Si       0.23764    0.62682    0.31766    1.000
    N896     N        0.00824    0.64232    0.38029    1.000
    Si897    Si       0.00809    0.61899    0.41772    1.000
    N898     N        0.05389    0.64163    0.49287    1.000
    Si899    Si       0.20316    0.60498    0.37631    1.000
    Si900    Si       0.21930    0.61571    0.44226    1.000
    N901     N        0.18975    0.63817    0.46611    1.000
    N902     N        0.13118    0.64602    0.41553    1.000
    Si903    Si       0.14638    0.63666    0.45639    1.000
    N904     N        0.23769    0.63991    0.41268    1.000
    N905     N        0.23635    0.59547    0.34918    1.000
    Si906    Si       0.02706    0.62876    0.57417    1.000
    N907     N        0.04525    0.61995    0.61397    1.000
    N908     N        0.05085    0.60165    0.54838    1.000
    Si909    Si       0.04660    0.60126    0.50549    1.000
    Si910    Si       0.09243    0.65167    0.50995    1.000
    N911     N        0.98891    0.61615    0.55351    1.000
    N912     N        0.10952    0.61313    0.52190    1.000
    N913     N        0.11498    0.61959    0.59146    1.000
    Si914    Si       0.22016    0.62740    0.61260    1.000
    Si915    Si       0.15654    0.61068    0.59603    1.000
    N916     N        0.18308    0.64735    0.59688    1.000
    Si917    Si       0.08464    0.63556    0.62099    1.000
    N918     N        0.02489    0.60199    0.72493    1.000
    Si919    Si       0.01001    0.64054    0.71099    1.000
    N920     N        0.10127    0.62109    0.65861    1.000
    N921     N        0.10017    0.62813    0.72624    1.000
    Si922    Si       0.01660    0.60427    0.64094    1.000
    N923     N        0.99990    0.63611    0.66790    1.000
    Si924    Si       0.07161    0.65352    0.74632    1.000
    N925     N        0.16078    0.61936    0.70098    1.000
    N926     N        0.22695    0.65582    0.70987    1.000
    N927     N        0.22348    0.62068    0.65564    1.000
    Si928    Si       0.19572    0.63949    0.68554    1.000
    Si929    Si       0.12192    0.64107    0.69145    1.000
    Si930    Si       0.09341    0.59673    0.55978    1.000
    N931     N        0.05436    0.63279    0.78167    1.000
    N932     N        0.10787    0.63286    0.82868    1.000
    N933     N        0.99632    0.60960    0.79284    1.000
    N934     N        0.17047    0.60814    0.82406    1.000
    Si935    Si       0.14725    0.64519    0.83001    1.000
    Si936    Si       0.19520    0.59900    0.85754    1.000
    N937     N        0.24028    0.60135    0.84945    1.000
    N938     N        0.05646    0.62799    0.88519    1.000
    N939     N        0.09558    0.62364    0.93815    1.000
    Si940    Si       0.01329    0.61912    0.88858    1.000
    N941     N        0.01061    0.60735    0.93010    1.000
    Si942    Si       0.03265    0.64958    0.99383    1.000
    N943     N        0.04095    0.60561    0.99218    1.000
    Si944    Si       0.12649    0.62849    0.97016    1.000
    N945     N        0.16896    0.63010    0.96388    1.000
    Si946    Si       0.19020    0.60953    0.93281    1.000
    N947     N        0.19157    0.62604    0.89167    1.000
    N948     N        0.23107    0.60572    0.94731    1.000
    Si949    Si       0.03109    0.68516    0.09407    1.000
    Si950    Si       0.07812    0.69374    0.03999    1.000
    Si951    Si       0.09923    0.66464    0.09976    1.000
    N952     N        0.99506    0.67743    0.07416    1.000
    N953     N        0.98646    0.66131    0.17982    1.000
    N954     N        0.16504    0.68907    0.20058    1.000
    N955     N        0.99389    0.65459    0.00966    1.000
    N956     N        0.11467    0.68605    0.06305    1.000
    N957     N        0.18071    0.66318    0.07149    1.000
    N958     N        0.16556    0.68306    0.00637    1.000
    Si959    Si       0.15644    0.69466    0.04825    1.000
    Si960    Si       0.16400    0.65937    0.11237    1.000
    N961     N        0.15643    0.70017    0.12236    1.000
    Si962    Si       0.06053    0.70516    0.23323    1.000
    N963     N        0.09827    0.68850    0.13625    1.000
    N964     N        0.09674    0.68469    0.21792    1.000
    N965     N        0.01895    0.70152    0.13279    1.000
    Si966    Si       0.02349    0.67643    0.16761    1.000
    Si967    Si       0.09449    0.66765    0.17349    1.000
    N968     N        0.03173    0.70570    0.20096    1.000
    Si969    Si       0.13485    0.66453    0.21797    1.000
    Si970    Si       0.19249    0.66136    0.18056    1.000
    N971     N        0.23112    0.68379    0.17585    1.000
    N972     N        0.04323    0.68514    0.26586    1.000
    Si973    Si       0.02214    0.69817    0.30212    1.000
    N974     N        0.08068    0.66678    0.36650    1.000
    N975     N        0.02083    0.65846    0.32095    1.000
    Si976    Si       0.06993    0.70837    0.36977    1.000
    N977     N        0.21821    0.67611    0.25419    1.000
    N978     N        0.21156    0.71101    0.34720    1.000
    Si979    Si       0.01033    0.67934    0.40593    1.000
    Si980    Si       0.02610    0.67166    0.47917    1.000
    N981     N        0.04320    0.70699    0.40435    1.000
    N982     N        0.01073    0.65571    0.44200    1.000
    N983     N        0.04818    0.71116    0.47799    1.000
    Si984    Si       0.20819    0.66988    0.49104    1.000
    Si985    Si       0.12276    0.65887    0.37481    1.000
    N986     N        0.20648    0.70078    0.41367    1.000
    N987     N        0.14860    0.69469    0.37455    1.000
    N988     N        0.18438    0.70526    0.48069    1.000
    Si989    Si       0.18960    0.68477    0.37437    1.000
    N990     N        0.12507    0.66621    0.48493    1.000
    N991     N        0.08273    0.68687    0.53927    1.000
    N992     N        0.02892    0.67260    0.57780    1.000
    Si993    Si       0.06770    0.69408    0.57917    1.000
    N994     N        0.08447    0.67878    0.61741    1.000
    N995     N        0.99233    0.67234    0.50816    1.000
    Si996    Si       0.99401    0.69417    0.59374    1.000
    N997     N        0.15925    0.69139    0.54217    1.000
    Si998    Si       0.19320    0.67967    0.56592    1.000
    Si999    Si       0.14638    0.69928    0.50173    1.000
    N1000    N        0.21625    0.65915    0.53361    1.000
    N1001    N        0.20004    0.71107    0.59753    1.000
    N1002    N        0.04270    0.66650    0.71681    1.000
    Si1003   Si       0.10107    0.70413    0.65086    1.000
    N1004    N        0.06068    0.70920    0.66896    1.000
    Si1005   Si       0.04181    0.70930    0.70676    1.000
    N1006    N        0.14187    0.70498    0.62868    1.000
    Si1007   Si       0.17873    0.68353    0.62363    1.000
    N1008    N        0.18470    0.67452    0.66412    1.000
    N1009    N        0.12099    0.68391    0.68658    1.000
    Si1010   Si       0.21285    0.68816    0.73402    1.000
    N1011    N        0.17083    0.69001    0.72861    1.000
    Si1012   Si       0.16080    0.70335    0.68826    1.000
    N1013    N        0.09484    0.68064    0.77107    1.000
    N1014    N        0.06533    0.68289    0.83727    1.000
    Si1015   Si       0.08056    0.65672    0.80724    1.000
    Si1016   Si       0.98807    0.68391    0.85783    1.000
    Si1017   Si       0.14109    0.68906    0.76098    1.000
    Si1018   Si       0.19897    0.68395    0.80502    1.000
    N1019    N        0.15863    0.67004    0.79597    1.000
    N1020    N        0.22065    0.66791    0.77150    1.000
    N1021    N        0.21447    0.66312    0.83901    1.000
    N1022    N        0.15414    0.67491    0.86394    1.000
    Si1023   Si       0.06241    0.66932    0.87936    1.000
    Si1024   Si       0.01147    0.69202    0.93579    1.000
    N1025    N        0.09355    0.68355    0.90443    1.000
    N1026    N        0.02403    0.68710    0.89258    1.000
    N1027    N        0.04222    0.67437    0.95934    1.000
    Si1028   Si       0.08275    0.66729    0.94193    1.000
    N1029    N        0.11388    0.67159    0.97099    1.000
    Si1030   Si       0.14549    0.70178    0.97278    1.000
    Si1031   Si       0.19994    0.71010    0.93572    1.000
    N1032    N        0.15774    0.70044    0.92922    1.000
    Si1033   Si       0.13281    0.69988    0.89250    1.000
    N1034    N        0.21822    0.68143    0.96210    1.000
    N1035    N        0.21664    0.70032    0.89746    1.000
    Si1036   Si       0.19755    0.66724    0.87881    1.000
    Si1037   Si       0.19506    0.65628    0.98903    1.000
    Si1038   Si       0.05850    0.75287    0.08858    1.000
    Si1039   Si       0.03463    0.74061    0.02959    1.000
    N1040    N        0.09780    0.75387    0.10809    1.000
    N1041    N        0.07248    0.72660    0.01041    1.000
    N1042    N        0.99150    0.73087    0.02945    1.000
    N1043    N        0.03010    0.76894    0.11680    1.000
    N1044    N        0.17722    0.73136    0.05721    1.000
    Si1045   Si       0.18137    0.73087    0.10279    1.000
    N1046    N        0.15792    0.76426    0.11970    1.000
    Si1047   Si       0.99137    0.73503    0.13198    1.000
    Si1048   Si       0.99988    0.73670    0.20404    1.000
    N1049    N        0.99662    0.76129    0.16912    1.000
    N1050    N        0.01096    0.76634    0.23613    1.000
    N1051    N        0.07424    0.74505    0.24216    1.000
    N1052    N        0.21853    0.73443    0.12589    1.000
    N1053    N        0.12454    0.74121    0.17619    1.000
    Si1054   Si       0.15572    0.73099    0.20473    1.000
    Si1055   Si       0.22919    0.76142    0.20848    1.000
    N1056    N        0.18862    0.75501    0.18930    1.000
    N1057    N        0.14763    0.74475    0.24402    1.000
    Si1058   Si       0.12271    0.72670    0.13347    1.000
    N1059    N        0.04982    0.71510    0.06791    1.000
    Si1060   Si       0.06101    0.76277    0.32608    1.000
    N1061    N        0.09798    0.76433    0.30348    1.000
    N1062    N        0.04844    0.71958    0.33176    1.000
    Si1063   Si       0.11012    0.76070    0.25977    1.000
    Si1064   Si       0.23448    0.71375    0.26894    1.000
    Si1065   Si       0.19840    0.74693    0.32633    1.000
    N1066    N        0.20342    0.74102    0.28347    1.000
    N1067    N        0.16053    0.75459    0.34520    1.000
    Si1068   Si       0.18010    0.77062    0.25990    1.000
    N1069    N        0.09905    0.74074    0.38034    1.000
    Si1070   Si       0.04124    0.73112    0.44138    1.000
    N1071    N        0.99909    0.74493    0.43834    1.000
    N1072    N        0.06392    0.76496    0.43586    1.000
    Si1073   Si       0.14239    0.73600    0.38122    1.000
    N1074    N        0.15683    0.75191    0.41878    1.000
    Si1075   Si       0.18629    0.73017    0.44020    1.000
    N1076    N        0.20974    0.76325    0.45624    1.000
    N1077    N        0.06189    0.73402    0.59475    1.000
    N1078    N        0.05727    0.75223    0.53315    1.000
    Si1079   Si       0.01682    0.76216    0.51959    1.000
    Si1080   Si       0.07575    0.72042    0.51068    1.000
    Si1081   Si       0.07154    0.77106    0.57073    1.000
    N1082    N        0.11769    0.73381    0.50442    1.000
    Si1083   Si       0.20472    0.75473    0.60245    1.000
    N1084    N        0.22773    0.72767    0.73995    1.000
    N1085    N        0.05951    0.73229    0.73842    1.000
    N1086    N        0.10625    0.75139    0.65248    1.000
    Si1087   Si       0.04282    0.73104    0.63420    1.000
    N1088    N        0.99860    0.72021    0.70360    1.000
    N1089    N        0.04367    0.77030    0.64865    1.000
    N1090    N        0.00297    0.71456    0.63101    1.000
    N1091    N        0.17201    0.74305    0.67432    1.000
    Si1092   Si       0.14643    0.74642    0.63933    1.000
    N1093    N        0.07013    0.74396    0.80019    1.000
    Si1094   Si       0.05189    0.72501    0.83765    1.000
    Si1095   Si       0.03713    0.75566    0.77032    1.000
    Si1096   Si       0.08868    0.72294    0.76820    1.000
    N1097    N        0.00260    0.72749    0.77488    1.000
    N1098    N        0.00841    0.72198    0.84488    1.000
    Si1099   Si       0.16034    0.75078    0.79261    1.000
    N1100    N        0.13102    0.73092    0.76588    1.000
    N1101    N        0.19649    0.72810    0.80106    1.000
    Si1102   Si       0.23306    0.73829    0.78168    1.000
    N1103    N        0.13282    0.76565    0.82219    1.000
    N1104    N        0.19025    0.77308    0.86253    1.000
    N1105    N        0.05700    0.74568    0.87538    1.000
    N1106    N        0.07752    0.75736    0.94366    1.000
    Si1107   Si       0.08775    0.76190    0.90199    1.000
    Si1108   Si       0.01428    0.73520    0.88759    1.000
    Si1109   Si       0.09335    0.75685    0.98603    1.000
    N1110    N        0.01340    0.73680    0.93319    1.000
    Si1111   Si       0.03534    0.76921    0.95165    1.000
    N1112    N        0.02381    0.76905    0.99364    1.000
    N1113    N        0.12574    0.74364    0.88622    1.000
    N1114    N        0.13517    0.74311    0.98309    1.000
    N1115    N        0.19997    0.74978    0.95404    1.000
    Si1116   Si       0.16783    0.77108    0.97102    1.000
    Si1117   Si       0.04154    0.79958    0.02087    1.000
    Si1118   Si       0.99755    0.77967    0.07864    1.000
    N1119    N        0.10678    0.82710    0.11019    1.000
    N1120    N        0.08131    0.79526    0.00252    1.000
    N1121    N        0.03940    0.77531    0.05649    1.000
    N1122    N        0.18657    0.78816    0.00668    1.000
    N1123    N        0.13965    0.79426    0.06025    1.000
    Si1124   Si       0.12382    0.78786    0.10104    1.000
    N1125    N        0.21032    0.78888    0.07098    1.000
    Si1126   Si       0.17831    0.77360    0.04638    1.000
    Si1127   Si       0.24045    0.81887    0.08446    1.000
    Si1128   Si       0.10582    0.78010    0.18843    1.000
    Si1129   Si       0.05101    0.77945    0.22593    1.000
    Si1130   Si       0.03073    0.78850    0.15444    1.000
    N1131    N        0.05371    0.82353    0.22816    1.000
    N1132    N        0.06275    0.77722    0.18260    1.000
    N1133    N        0.11022    0.79552    0.22884    1.000
    N1134    N        0.03028    0.83162    0.14925    1.000
    N1135    N        0.13541    0.80549    0.16556    1.000
    Si1136   Si       0.23411    0.77405    0.13806    1.000
    N1137    N        0.20514    0.80505    0.14690    1.000
    Si1138   Si       0.17087    0.77950    0.15860    1.000
    N1139    N        0.21230    0.78891    0.23872    1.000
    Si1140   Si       0.13803    0.83415    0.04515    1.000
    Si1141   Si       0.02396    0.80845    0.33772    1.000
    N1142    N        0.02764    0.78370    0.30331    1.000
    Si1143   Si       0.99660    0.78508    0.27237    1.000
    N1144    N        0.05142    0.78299    0.36429    1.000
    N1145    N        0.99216    0.82798    0.25731    1.000
    N1146    N        0.15444    0.79148    0.28875    1.000
    N1147    N        0.12935    0.82172    0.33792    1.000
    Si1148   Si       0.22370    0.82014    0.32745    1.000
    Si1149   Si       0.13209    0.78104    0.32438    1.000
    N1150    N        0.22745    0.77836    0.33360    1.000
    Si1151   Si       0.24103    0.82026    0.24908    1.000
    N1152    N        0.22872    0.81588    0.49321    1.000
    Si1153   Si       0.15188    0.79641    0.41966    1.000
    N1154    N        0.10080    0.80052    0.48644    1.000
    N1155    N        0.02455    0.78719    0.48546    1.000
    Si1156   Si       0.06282    0.79467    0.46811    1.000
    Si1157   Si       0.08153    0.77709    0.39619    1.000
    Si1158   Si       0.98944    0.78273    0.45845    1.000
    N1159    N        0.05692    0.83019    0.44189    1.000
    N1160    N        0.11192    0.80781    0.40916    1.000
    Si1161   Si       0.19116    0.79201    0.48225    1.000
    Si1162   Si       0.22189    0.81903    0.39634    1.000
    N1163    N        0.17926    0.81870    0.39504    1.000
    N1164    N        0.16032    0.81049    0.45824    1.000
    Si1165   Si       0.13816    0.83147    0.29550    1.000
    N1166    N        0.05206    0.80630    0.58788    1.000
    Si1167   Si       0.01104    0.81357    0.57673    1.000
    N1168    N        0.10797    0.78848    0.55222    1.000
    N1169    N        0.99584    0.78124    0.55215    1.000
    N1170    N        0.98965    0.81085    0.61601    1.000
    Si1171   Si       0.18881    0.80386    0.55471    1.000
    N1172    N        0.16786    0.78694    0.51868    1.000
    N1173    N        0.15925    0.82760    0.57975    1.000
    N1174    N        0.21993    0.77762    0.57027    1.000
    Si1175   Si       0.12067    0.83018    0.55622    1.000
    Si1176   Si       0.12436    0.77676    0.51407    1.000
    Si1177   Si       0.15298    0.81565    0.62181    1.000
    Si1178   Si       0.99815    0.80337    0.72445    1.000
    Si1179   Si       0.01855    0.80527    0.64814    1.000
    Si1180   Si       0.08295    0.78993    0.65685    1.000
    N1181    N        0.09615    0.80259    0.69662    1.000
    Si1182   Si       0.07190    0.80979    0.73259    1.000
    N1183    N        0.10825    0.81504    0.62582    1.000
    N1184    N        0.03425    0.79040    0.74243    1.000
    N1185    N        0.99498    0.80373    0.68312    1.000
    N1186    N        0.22236    0.77381    0.63833    1.000
    N1187    N        0.22352    0.78700    0.70269    1.000
    N1188    N        0.15933    0.80927    0.66718    1.000
    Si1189   Si       0.19384    0.78176    0.67071    1.000
    Si1190   Si       0.23182    0.82367    0.72036    1.000
    N1191    N        0.05326    0.82997    0.65188    1.000
    N1192    N        0.16514    0.77249    0.61169    1.000
    N1193    N        0.07434    0.81653    0.81677    1.000
    N1194    N        0.10057    0.79635    0.76213    1.000
    Si1195   Si       0.03116    0.81887    0.82153    1.000
    Si1196   Si       0.09605    0.78156    0.80369    1.000
    N1197    N        0.01788    0.78009    0.80665    1.000
    N1198    N        0.02281    0.82515    0.86495    1.000
    Si1199   Si       0.20484    0.80823    0.78718    1.000
    N1200    N        0.17048    0.78803    0.77231    1.000
    Si1201   Si       0.21327    0.80878    0.86263    1.000
    Si1202   Si       0.13911    0.81708    0.76184    1.000
    N1203    N        0.14351    0.81655    0.86062    1.000
    N1204    N        0.19854    0.82708    0.82403    1.000
    Si1205   Si       0.14631    0.77347    0.86186    1.000
    N1206    N        0.08831    0.80341    0.89426    1.000
    N1207    N        0.02968    0.80927    0.93401    1.000
    Si1208   Si       0.05039    0.82649    0.90113    1.000
    Si1209   Si       0.17226    0.83048    0.92503    1.000
    N1210    N        0.15250    0.79701    0.94043    1.000
    N1211    N        0.23748    0.78229    0.78847    1.000
    N1212    N        0.20509    0.83192    0.89809    1.000
    Si1213   Si       0.98965    0.82867    0.94402    1.000
    Si1214   Si       0.01738    0.87562    0.04928    1.000
    Si1215   Si       0.08388    0.85501    0.08682    1.000
    N1216    N        0.03970    0.85472    0.08364    1.000
    N1217    N        0.09639    0.84454    0.04578    1.000
    N1218    N        0.02749    0.84073    0.01691    1.000
    Si1219   Si       0.00974    0.84254    0.11323    1.000
    Si1220   Si       0.09743    0.83633    0.00266    1.000
    N1221    N        0.98978    0.87842    0.12165    1.000
    Si1222   Si       0.19668    0.88093    0.07182    1.000
    N1223    N        0.22027    0.85645    0.10317    1.000
    N1224    N        0.17764    0.84984    0.04725    1.000
    N1225    N        0.23175    0.84418    0.00774    1.000
    N1226    N        0.13899    0.83591    0.00073    1.000
    N1227    N        0.23837    0.86574    0.16152    1.000
    N1228    N        0.08985    0.86690    0.16930    1.000
    Si1229   Si       0.04509    0.86853    0.16759    1.000
    N1230    N        0.02184    0.88055    0.20416    1.000
    Si1231   Si       0.02238    0.85325    0.23929    1.000
    Si1232   Si       0.09438    0.83556    0.23648    1.000
    Si1233   Si       0.18640    0.83418    0.00702    1.000
    Si1234   Si       0.12353    0.84419    0.15016    1.000
    N1235    N        0.16171    0.86425    0.14465    1.000
    Si1236   Si       0.20273    0.84841    0.14587    1.000
    N1237    N        0.11466    0.87037    0.22487    1.000
    Si1238   Si       0.06702    0.86194    0.29803    1.000
    N1239    N        0.04279    0.84646    0.33031    1.000
    N1240    N        0.04636    0.87906    0.26439    1.000
    Si1241   Si       0.03795    0.87057    0.36712    1.000
    N1242    N        0.09582    0.88677    0.32041    1.000
    N1243    N        0.09634    0.83594    0.28063    1.000
    N1244    N        0.18781    0.84769    0.33059    1.000
    N1245    N        0.16411    0.85945    0.27439    1.000
    Si1246   Si       0.20134    0.86808    0.29329    1.000
    Si1247   Si       0.15878    0.84184    0.36352    1.000
    N1248    N        0.11681    0.86578    0.45177    1.000
    N1249    N        0.07672    0.86521    0.38637    1.000
    N1250    N        0.00937    0.88121    0.45859    1.000
    Si1251   Si       0.01895    0.84659    0.43325    1.000
    N1252    N        0.00845    0.85272    0.39241    1.000
    Si1253   Si       0.09240    0.84374    0.42145    1.000
    N1254    N        0.14437    0.87964    0.37768    1.000
    Si1255   Si       0.12835    0.83362    0.47950    1.000
    Si1256   Si       0.10380    0.88905    0.36287    1.000
    N1257    N        0.23158    0.83647    0.28783    1.000
    Si1258   Si       0.14897    0.88701    0.24579    1.000
    N1259    N        0.09596    0.85815    0.57439    1.000
    N1260    N        0.05062    0.88027    0.60986    1.000
    Si1261   Si       0.07177    0.83845    0.60898    1.000
    N1262    N        0.99431    0.85020    0.56804    1.000
    Si1263   Si       0.18785    0.86416    0.58693    1.000
    N1264    N        0.13349    0.84840    0.51749    1.000
    Si1265   Si       0.21832    0.85380    0.51242    1.000
    N1266    N        0.21050    0.84280    0.55295    1.000
    Si1267   Si       0.15447    0.88647    0.52598    1.000
    N1268    N        0.18840    0.88445    0.50301    1.000
    Si1269   Si       0.06400    0.85767    0.68341    1.000
    N1270    N        0.05617    0.84817    0.72473    1.000
    N1271    N        0.10442    0.86660    0.67430    1.000
    Si1272   Si       0.12774    0.83121    0.68767    1.000
    N1273    N        0.14616    0.84187    0.72648    1.000
    Si1274   Si       0.21380    0.86833    0.65599    1.000
    N1275    N        0.20943    0.85277    0.69605    1.000
    Si1276   Si       0.18355    0.86343    0.73155    1.000
    N1277    N        0.18435    0.85362    0.62917    1.000
    N1278    N        0.22372    0.89077    0.59105    1.000
    N1279    N        0.03043    0.88729    0.67651    1.000
    Si1280   Si       0.09475    0.85360    0.80997    1.000
    N1281    N        0.01397    0.85085    0.79778    1.000
    N1282    N        0.07485    0.87724    0.78155    1.000
    Si1283   Si       0.03377    0.86618    0.75975    1.000
    N1284    N        0.10826    0.86815    0.84856    1.000
    Si1285   Si       0.16043    0.84512    0.83284    1.000
    N1286    N        0.21331    0.84122    0.75761    1.000
    N1287    N        0.13658    0.84102    0.79740    1.000
    N1288    N        0.17101    0.88723    0.84119    1.000
    N1289    N        0.13930    0.85968    0.91228    1.000
    N1290    N        0.07443    0.86149    0.90777    1.000
    N1291    N        0.07513    0.86073    0.97642    1.000
    N1292    N        0.00208    0.87021    0.95965    1.000
    Si1293   Si       0.03423    0.87045    0.98737    1.000
    Si1294   Si       0.09278    0.88256    0.94263    1.000
    Si1295   Si       0.11086    0.84120    0.88435    1.000
    N1296    N        0.19413    0.84185    0.96126    1.000
    Si1297   Si       0.22565    0.87088    0.90300    1.000
    Si1298   Si       0.23658    0.84031    0.96587    1.000
    N1299    N        0.02656    0.91831    0.07421    1.000
    Si1300   Si       0.03826    0.94124    0.03920    1.000
    N1301    N        0.03291    0.90377    0.01578    1.000
    N1302    N        0.09926    0.89546    0.09602    1.000
    Si1303   Si       0.01460    0.91428    0.11745    1.000
    Si1304   Si       0.21248    0.93447    0.01414    1.000
    Si1305   Si       0.12901    0.91540    0.07148    1.000
    N1306    N        0.13174    0.90897    0.02947    1.000
    N1307    N        0.21967    0.90248    0.04157    1.000
    N1308    N        0.16647    0.90424    0.09255    1.000
    Si1309   Si       0.08484    0.91699    0.13219    1.000
    N1310    N        0.07746    0.92839    0.21780    1.000
    N1311    N        0.04584    0.90303    0.14250    1.000
    Si1312   Si       0.10121    0.90075    0.19433    1.000
    N1313    N        0.99023    0.94763    0.12619    1.000
    N1314    N        0.18896    0.93016    0.15346    1.000
    Si1315   Si       0.18359    0.93070    0.19748    1.000
    Si1316   Si       0.15693    0.90717    0.13552    1.000
    Si1317   Si       0.22353    0.89555    0.23338    1.000
    N1318    N        0.12159    0.92332    0.15871    1.000
    N1319    N        0.22683    0.93374    0.21209    1.000
    N1320    N        0.18094    0.89385    0.21816    1.000
    N1321    N        0.02595    0.91138    0.36020    1.000
    N1322    N        0.06638    0.93910    0.27860    1.000
    Si1323   Si       0.10393    0.92236    0.29656    1.000
    Si1324   Si       0.05132    0.94634    0.36185    1.000
    N1325    N        0.00887    0.94006    0.24782    1.000
    Si1326   Si       0.04615    0.91684    0.24640    1.000
    N1327    N        0.98871    0.93053    0.30876    1.000
    N1328    N        0.23989    0.89685    0.46220    1.000
    Si1329   Si       0.23208    0.92750    0.36147    1.000
    N1330    N        0.13456    0.91959    0.26699    1.000
    N1331    N        0.22164    0.90330    0.27714    1.000
    Si1332   Si       0.20994    0.94230    0.29562    1.000
    N1333    N        0.20011    0.94703    0.33919    1.000
    N1334    N        0.08806    0.92863    0.37449    1.000
    Si1335   Si       0.01075    0.91987    0.47431    1.000
    N1336    N        0.10348    0.93934    0.44259    1.000
    N1337    N        0.04365    0.94225    0.48714    1.000
    N1338    N        0.14962    0.94653    0.38821    1.000
    N1339    N        0.21334    0.90591    0.39188    1.000
    Si1340   Si       0.16891    0.90698    0.39997    1.000
    N1341    N        0.16678    0.90946    0.44318    1.000
    Si1342   Si       0.20097    0.91158    0.47192    1.000
    Si1343   Si       0.12709    0.90730    0.46213    1.000
    Si1344   Si       0.10950    0.95470    0.40316    1.000
    N1345    N        0.07204    0.92058    0.55021    1.000
    N1346    N        0.00539    0.90591    0.52130    1.000
    Si1347   Si       0.08360    0.89840    0.58593    1.000
    Si1348   Si       0.03464    0.93480    0.53335    1.000
    Si1349   Si       0.10532    0.94239    0.52972    1.000
    N1350    N        0.11095    0.91269    0.61659    1.000
    Si1351   Si       0.14504    0.92763    0.59433    1.000
    N1352    N        0.12873    0.91449    0.50636    1.000
    N1353    N        0.16045    0.89572    0.56814    1.000
    N1354    N        0.21889    0.91116    0.65153    1.000
    N1355    N        0.08801    0.93512    0.68744    1.000
    Si1356   Si       0.00209    0.90780    0.70265    1.000
    N1357    N        0.03124    0.94000    0.63133    1.000
    Si1358   Si       0.02151    0.89777    0.63590    1.000
    Si1359   Si       0.11355    0.90701    0.66132    1.000
    N1360    N        0.02082    0.94878    0.69973    1.000
    Si1361   Si       0.16485    0.92950    0.71638    1.000
    N1362    N        0.13574    0.94126    0.74677    1.000
    Si1363   Si       0.18579    0.93653    0.65961    1.000
    N1364    N        0.15304    0.91297    0.67742    1.000
    N1365    N        0.18895    0.90497    0.74222    1.000
    Si1366   Si       0.02712    0.94583    0.74375    1.000
    Si1367   Si       0.00829    0.92646    0.84790    1.000
    Si1368   Si       0.07286    0.91865    0.79286    1.000
    N1369    N        0.03851    0.92358    0.81849    1.000
    N1370    N        0.06887    0.94251    0.75647    1.000
    N1371    N        0.11039    0.92676    0.81310    1.000
    Si1372   Si       0.04197    0.94537    0.92567    1.000
    Si1373   Si       0.13055    0.90487    0.84303    1.000
    Si1374   Si       0.21016    0.90697    0.84165    1.000
    Si1375   Si       0.20402    0.92955    0.77498    1.000
    N1376    N        0.22363    0.90222    0.80110    1.000
    N1377    N        0.21846    0.94749    0.85226    1.000
    N1378    N        0.02652    0.94211    0.88496    1.000
    N1379    N        0.00523    0.94441    0.94948    1.000
    N1380    N        0.06906    0.91966    0.94479    1.000
    N1381    N        0.13619    0.92850    0.88092    1.000
    N1382    N        0.12868    0.91188    0.94759    1.000
    Si1383   Si       0.13847    0.92265    0.98935    1.000
    Si1384   Si       0.20628    0.92519    0.95254    1.000
    Si1385   Si       0.15226    0.90113    0.91199    1.000
    N1386    N        0.19691    0.90040    0.91881    1.000
    N1387    N        0.18035    0.92317    0.98635    1.000
    N1388    N        0.01672    0.90350    0.74462    1.000
    Si1389   Si       0.08661    0.97438    0.08880    1.000
    N1390    N        0.00875    0.96641    0.02079    1.000
    Si1391   Si       0.09292    0.98537    0.01356    1.000
    N1392    N        0.07151    0.96888    0.04733    1.000
    Si1393   Si       0.02027    0.00259    0.99904    1.000
    N1394    N        0.19994    0.97068    0.03390    1.000
    N1395    N        0.19871    0.97365    0.10249    1.000
    Si1396   Si       0.15715    0.98287    0.10142    1.000
    Si1397   Si       0.22221    0.98337    0.06891    1.000
    N1398    N        0.12738    0.95766    0.08484    1.000
    N1399    N        0.07345    0.95902    0.12690    1.000
    N1400    N        0.02827    0.97531    0.18114    1.000
    Si1401   Si       0.06397    0.99012    0.15832    1.000
    N1402    N        0.09466    0.98447    0.18688    1.000
    Si1403   Si       0.08132    0.97131    0.22620    1.000
    Si1404   Si       0.01070    0.97739    0.22335    1.000
    N1405    N        0.04763    0.99224    0.24390    1.000
    N1406    N        0.15226    0.95550    0.20732    1.000
    Si1407   Si       0.22076    0.95113    0.13286    1.000
    Si1408   Si       0.12955    0.96385    0.17124    1.000
    N1409    N        0.21936    0.00182    0.21722    1.000
    N1410    N        0.14639    0.99146    0.14408    1.000
    N1411    N        0.04715    0.97279    0.32605    1.000
    Si1412   Si       0.08189    0.97991    0.29603    1.000
    N1413    N        0.99981    0.99210    0.29206    1.000
    Si1414   Si       0.02087    0.95651    0.29019    1.000
    N1415    N        0.10998    0.98739    0.25703    1.000
    N1416    N        0.11536    0.95688    0.31960    1.000
    Si1417   Si       0.12226    0.99086    0.34535    1.000
    N1418    N        0.18330    0.96661    0.26855    1.000
    Si1419   Si       0.14454    0.95931    0.25024    1.000
    N1420    N        0.16155    0.00718    0.35472    1.000
    Si1421   Si       0.19848    0.00715    0.25460    1.000
    Si1422   Si       0.18085    0.97210    0.37199    1.000
    N1423    N        0.06665    0.00292    0.44493    1.000
    N1424    N        0.09733    0.99080    0.38266    1.000
    N1425    N        0.03322    0.97154    0.39181    1.000
    Si1426   Si       0.07590    0.96477    0.46648    1.000
    Si1427   Si       0.05889    0.00543    0.40184    1.000
    Si1428   Si       0.99143    0.96573    0.40712    1.000
    N1429    N        0.20404    0.97515    0.40834    1.000
    N1430    N        0.98770    0.00722    0.42161    1.000
    N1431    N        0.20511    0.95434    0.47819    1.000
    Si1432   Si       0.18738    0.97898    0.44751    1.000
    N1433    N        0.15511    0.00536    0.45769    1.000
    Si1434   Si       0.02028    0.00937    0.32889    1.000
    N1435    N        0.01452    0.96444    0.55947    1.000
    Si1436   Si       0.00691    0.96225    0.60136    1.000
    Si1437   Si       0.00458    0.00088    0.53555    1.000
    N1438    N        0.10227    0.97468    0.50082    1.000
    N1439    N        0.22946    0.99210    0.62660    1.000
    Si1440   Si       0.19890    0.97763    0.59957    1.000
    N1441    N        0.21652    0.96988    0.56107    1.000
    N1442    N        0.12816    0.95728    0.56462    1.000
    Si1443   Si       0.13241    0.00052    0.56101    1.000
    Si1444   Si       0.19185    0.00488    0.54593    1.000
    N1445    N        0.17261    0.94792    0.62028    1.000
    N1446    N        0.00365    0.00055    0.62323    1.000
    N1447    N        0.06101    0.99605    0.66510    1.000
    Si1448   Si       0.05218    0.95236    0.66926    1.000
    N1449    N        0.10830    0.99347    0.72274    1.000
    Si1450   Si       0.09967    0.95190    0.72602    1.000
    Si1451   Si       0.22622    0.97452    0.71551    1.000
    N1452    N        0.19138    0.95776    0.69796    1.000
    N1453    N        0.15445    0.00986    0.52356    1.000
    N1454    N        0.00701    0.97643    0.76370    1.000
    N1455    N        0.10386    0.99971    0.86430    1.000
    N1456    N        0.99120    0.96536    0.83747    1.000
    N1457    N        0.12540    0.99527    0.79264    1.000
    Si1458   Si       0.19292    0.97703    0.83215    1.000
    N1459    N        0.16745    0.99415    0.86219    1.000
    N1460    N        0.23189    0.96062    0.75879    1.000
    Si1461   Si       0.13617    0.95278    0.79008    1.000
    N1462    N        0.21996    0.00705    0.81722    1.000
    N1463    N        0.17672    0.94835    0.80304    1.000
    Si1464   Si       0.00645    0.98355    0.87565    1.000
    N1465    N        0.07254    0.97660    0.92287    1.000
    Si1466   Si       0.10392    0.95054    0.94405    1.000
    N1467    N        0.10972    0.95815    0.98651    1.000
    N1468    N        0.13851    0.97524    0.92624    1.000
    Si1469   Si       0.17269    0.99564    0.94688    1.000
    Si1470   Si       0.13365    0.97285    0.88255    1.000
    N1471    N        0.20526    0.96655    0.94043    1.000
    N1472    N        0.06202    0.00736    0.98933    1.000
    Si1473   Si       0.07557    0.01135    0.89634    1.000
    N1474    N        0.28903    0.02743    0.04171    1.000
    Si1475   Si       0.31916    0.04520    0.01565    1.000
    Si1476   Si       0.25920    0.04709    0.06743    1.000
    N1477    N        0.25066    0.03878    0.11103    1.000
    N1478    N        0.34860    0.01112    0.01196    1.000
    Si1479   Si       0.39003    0.02186    0.01540    1.000
    N1480    N        0.47207    0.03532    0.08165    1.000
    N1481    N        0.45377    0.05940    0.02561    1.000
    Si1482   Si       0.43109    0.05463    0.06470    1.000
    N1483    N        0.40299    0.02029    0.05680    1.000
    N1484    N        0.30749    0.00795    0.13674    1.000
    Si1485   Si       0.34425    0.02957    0.12577    1.000
    N1486    N        0.25775    0.04179    0.17552    1.000
    N1487    N        0.31263    0.04295    0.21590    1.000
    Si1488   Si       0.26535    0.01368    0.14310    1.000
    Si1489   Si       0.44356    0.05497    0.23280    1.000
    N1490    N        0.42894    0.01065    0.14311    1.000
    N1491    N        0.48037    0.05503    0.14664    1.000
    N1492    N        0.36201    0.05285    0.15815    1.000
    N1493    N        0.41497    0.03774    0.20779    1.000
    Si1494   Si       0.43589    0.05323    0.14096    1.000
    Si1495   Si       0.48495    0.03253    0.03942    1.000
    Si1496   Si       0.28849    0.06662    0.19096    1.000
    Si1497   Si       0.33739    0.06423    0.24421    1.000
    N1498    N        0.33825    0.05018    0.33295    1.000
    Si1499   Si       0.26186    0.03320    0.36403    1.000
    Si1500   Si       0.32135    0.01709    0.30954    1.000
    N1501    N        0.35332    0.03705    0.27385    1.000
    Si1502   Si       0.48932    0.01268    0.32457    1.000
    Si1503   Si       0.37489    0.05730    0.31083    1.000
    N1504    N        0.40346    0.02014    0.30473    1.000
    Si1505   Si       0.42554    0.02994    0.34447    1.000
    N1506    N        0.46417    0.02444    0.25607    1.000
    N1507    N        0.46318    0.04808    0.32876    1.000
    N1508    N        0.40007    0.06452    0.34879    1.000
    N1509    N        0.33542    0.04304    0.45461    1.000
    N1510    N        0.25800    0.01990    0.40423    1.000
    Si1511   Si       0.24441    0.04822    0.43985    1.000
    N1512    N        0.24861    0.06173    0.48573    1.000
    N1513    N        0.41181    0.05438    0.41268    1.000
    N1514    N        0.47934    0.04076    0.41287    1.000
    Si1515   Si       0.41586    0.01219    0.41555    1.000
    Si1516   Si       0.43660    0.00289    0.28085    1.000
    Si1517   Si       0.48357    0.00699    0.43989    1.000
    N1518    N        0.33376    0.03886    0.59314    1.000
    Si1519   Si       0.30772    0.02159    0.56277    1.000
    N1520    N        0.28528    0.05323    0.54446    1.000
    Si1521   Si       0.25214    0.03652    0.52104    1.000
    N1522    N        0.39231    0.04551    0.55017    1.000
    N1523    N        0.44890    0.02142    0.51456    1.000
    Si1524   Si       0.43149    0.05609    0.53577    1.000
    Si1525   Si       0.37364    0.05620    0.58797    1.000
    N1526    N        0.45790    0.06173    0.57164    1.000
    Si1527   Si       0.44586    0.06438    0.61273    1.000
    N1528    N        0.40471    0.04834    0.61826    1.000
    Si1529   Si       0.37810    0.00905    0.53422    1.000
    Si1530   Si       0.32564    0.02382    0.63579    1.000
    N1531    N        0.29137    0.03725    0.71129    1.000
    N1532    N        0.32406    0.06145    0.65815    1.000
    N1533    N        0.25382    0.06262    0.64856    1.000
    Si1534   Si       0.39691    0.01756    0.64947    1.000
    N1535    N        0.47589    0.04165    0.63825    1.000
    Si1536   Si       0.41976    0.04841    0.71438    1.000
    N1537    N        0.45385    0.01998    0.70259    1.000
    N1538    N        0.39009    0.04381    0.68429    1.000
    Si1539   Si       0.28502    0.06654    0.67720    1.000
    N1540    N        0.35226    0.03541    0.80084    1.000
    Si1541   Si       0.28056    0.04444    0.75307    1.000
    N1542    N        0.29134    0.01095    0.78008    1.000
    Si1543   Si       0.39781    0.03082    0.84853    1.000
    N1544    N        0.41285    0.02935    0.75115    1.000
    N1545    N        0.48469    0.02749    0.76708    1.000
    Si1546   Si       0.47176    0.01342    0.86592    1.000
    Si1547   Si       0.38871    0.01244    0.78172    1.000
    N1548    N        0.43536    0.03553    0.87215    1.000
    N1549    N        0.24382    0.03799    0.93329    1.000
    N1550    N        0.29621    0.06016    0.97971    1.000
    Si1551   Si       0.25731    0.04157    0.97584    1.000
    Si1552   Si       0.27359    0.01595    0.90923    1.000
    N1553    N        0.31046    0.03929    0.91403    1.000
    Si1554   Si       0.34498    0.01369    0.90878    1.000
    N1555    N        0.42012    0.06620    0.93475    1.000
    N1556    N        0.36497    0.01541    0.87109    1.000
    N1557    N        0.47117    0.03434    0.96617    1.000
    Si1558   Si       0.38206    0.05730    0.95285    1.000
    N1559    N        0.37142    0.01590    0.94242    1.000
    N1560    N        0.39518    0.06196    0.99436    1.000
    Si1561   Si       0.45187    0.00971    0.74615    1.000
    N1562    N        0.27807    0.08667    0.06491    1.000
    Si1563   Si       0.32155    0.09363    0.06926    1.000
    N1564    N        0.33840    0.07827    0.03229    1.000
    N1565    N        0.33304    0.06649    0.10326    1.000
    Si1566   Si       0.38861    0.06905    0.18965    1.000
    Si1567   Si       0.37724    0.09479    0.01870    1.000
    N1568    N        0.39978    0.09743    0.05462    1.000
    Si1569   Si       0.40218    0.10873    0.09824    1.000
    N1570    N        0.42240    0.06970    0.10393    1.000
    Si1571   Si       0.34241    0.08752    0.13872    1.000
    N1572    N        0.30794    0.09676    0.16417    1.000
    N1573    N        0.27089    0.09942    0.21353    1.000
    N1574    N        0.36971    0.11868    0.12679    1.000
    N1575    N        0.36996    0.08616    0.22510    1.000
    N1576    N        0.42012    0.08709    0.16703    1.000
    N1577    N        0.47390    0.07826    0.21324    1.000
    N1578    N        0.31272    0.09161    0.26471    1.000
    Si1579   Si       0.31996    0.07876    0.35901    1.000
    Si1580   Si       0.27305    0.10171    0.25511    1.000
    Si1581   Si       0.33386    0.11462    0.29367    1.000
    N1582    N        0.32215    0.11471    0.33483    1.000
    N1583    N        0.27785    0.07366    0.36159    1.000
    N1584    N        0.24422    0.08717    0.28418    1.000
    N1585    N        0.37498    0.09794    0.29179    1.000
    N1586    N        0.43071    0.08184    0.26600    1.000
    Si1587   Si       0.45530    0.08462    0.30346    1.000
    Si1588   Si       0.39537    0.10527    0.25518    1.000
    N1589    N        0.43938    0.11981    0.32405    1.000
    Si1590   Si       0.26436    0.10108    0.39498    1.000
    Si1591   Si       0.32096    0.07612    0.43231    1.000
    N1592    N        0.32315    0.11546    0.45200    1.000
    N1593    N        0.34287    0.08063    0.39547    1.000
    N1594    N        0.27666    0.07617    0.42647    1.000
    N1595    N        0.38936    0.11998    0.46094    1.000
    N1596    N        0.46449    0.10409    0.38668    1.000
    N1597    N        0.40110    0.11761    0.38942    1.000
    Si1598   Si       0.42907    0.11660    0.48022    1.000
    Si1599   Si       0.38517    0.07614    0.38768    1.000
    Si1600   Si       0.45114    0.07319    0.41617    1.000
    N1601    N        0.45230    0.08979    0.45525    1.000
    Si1602   Si       0.35188    0.12676    0.48211    1.000
    Si1603   Si       0.23611    0.10196    0.49700    1.000
    Si1604   Si       0.27611    0.09360    0.55776    1.000
    N1605    N        0.30852    0.11245    0.57784    1.000
    N1606    N        0.35424    0.10633    0.52077    1.000
    Si1607   Si       0.34703    0.11942    0.56190    1.000
    N1608    N        0.26505    0.12005    0.52587    1.000
    N1609    N        0.23960    0.09150    0.58450    1.000
    N1610    N        0.43681    0.08718    0.71959    1.000
    Si1611   Si       0.46613    0.12102    0.53017    1.000
    N1612    N        0.37506    0.09946    0.58852    1.000
    N1613    N        0.43312    0.09505    0.51934    1.000
    N1614    N        0.44159    0.10663    0.61552    1.000
    N1615    N        0.35159    0.09714    0.71622    1.000
    N1616    N        0.27494    0.10508    0.69554    1.000
    Si1617   Si       0.24014    0.10115    0.62615    1.000
    Si1618   Si       0.36011    0.07501    0.67936    1.000
    Si1619   Si       0.23775    0.11112    0.71802    1.000
    N1620    N        0.38209    0.10926    0.66340    1.000
    Si1621   Si       0.39680    0.11174    0.62266    1.000
    N1622    N        0.29386    0.07983    0.77071    1.000
    N1623    N        0.31931    0.09444    0.83535    1.000
    Si1624   Si       0.28284    0.09191    0.81222    1.000
    Si1625   Si       0.35499    0.07635    0.81542    1.000
    N1626    N        0.35591    0.10389    0.78189    1.000
    N1627    N        0.24688    0.07242    0.82711    1.000
    Si1628   Si       0.32687    0.10407    0.75104    1.000
    N1629    N        0.46473    0.09176    0.80441    1.000
    Si1630   Si       0.42784    0.09941    0.82996    1.000
    N1631    N        0.39481    0.07158    0.83205    1.000
    Si1632   Si       0.31081    0.07470    0.94040    1.000
    N1633    N        0.35205    0.08885    0.94681    1.000
    N1634    N        0.28490    0.10790    0.92815    1.000
    Si1635   Si       0.24499    0.12237    0.91593    1.000
    N1636    N        0.43329    0.10483    0.87260    1.000
    N1637    N        0.44812    0.10717    0.97957    1.000
    N1638    N        0.48171    0.07735    0.90728    1.000
    Si1639   Si       0.44026    0.07103    0.89748    1.000
    Si1640   Si       0.44386    0.06532    0.98298    1.000
    N1641    N        0.27250    0.16023    0.04086    1.000
    Si1642   Si       0.30863    0.17365    0.06100    1.000
    N1643    N        0.26679    0.14088    0.10532    1.000
    N1644    N        0.32986    0.13935    0.07828    1.000
    Si1645   Si       0.34522    0.15468    0.11618    1.000
    Si1646   Si       0.36625    0.17138    0.01452    1.000
    N1647    N        0.46200    0.17190    0.05211    1.000
    N1648    N        0.43176    0.13857    0.11249    1.000
    Si1649   Si       0.45774    0.17133    0.09647    1.000
    N1650    N        0.39806    0.17803    0.04237    1.000
    N1651    N        0.36653    0.13017    0.99852    1.000
    Si1652   Si       0.28108    0.17786    0.12801    1.000
    N1653    N        0.31869    0.16280    0.15038    1.000
    Si1654   Si       0.29373    0.13478    0.18259    1.000
    N1655    N        0.25898    0.15663    0.16694    1.000
    N1656    N        0.31450    0.15704    0.21409    1.000
    Si1657   Si       0.40641    0.17382    0.21931    1.000
    Si1658   Si       0.43643    0.12702    0.15492    1.000
    N1659    N        0.42065    0.15837    0.17953    1.000
    N1660    N        0.47998    0.12405    0.15580    1.000
    Si1661   Si       0.25720    0.12647    0.06438    1.000
    N1662    N        0.33635    0.15704    0.28533    1.000
    N1663    N        0.27058    0.14346    0.26730    1.000
    Si1664   Si       0.29845    0.14914    0.35163    1.000
    N1665    N        0.26114    0.15321    0.33151    1.000
    Si1666   Si       0.30568    0.16553    0.25541    1.000
    N1667    N        0.32899    0.18247    0.34917    1.000
    N1668    N        0.40737    0.14673    0.25399    1.000
    N1669    N        0.39608    0.17301    0.32312    1.000
    Si1670   Si       0.42389    0.15313    0.29642    1.000
    N1671    N        0.46449    0.17117    0.28895    1.000
    Si1672   Si       0.43465    0.12705    0.36551    1.000
    N1673    N        0.44343    0.16915    0.37340    1.000
    Si1674   Si       0.31576    0.14901    0.42577    1.000
    N1675    N        0.35545    0.16428    0.41403    1.000
    N1676    N        0.29057    0.13662    0.39201    1.000
    N1677    N        0.33962    0.16935    0.49027    1.000
    N1678    N        0.42421    0.17168    0.43846    1.000
    Si1679   Si       0.39387    0.14374    0.42364    1.000
    N1680    N        0.46459    0.14301    0.49204    1.000
    Si1681   Si       0.35484    0.18276    0.31457    1.000
    Si1682   Si       0.29500    0.14516    0.60317    1.000
    Si1683   Si       0.25604    0.16222    0.53630    1.000
    N1684    N        0.27321    0.17151    0.57773    1.000
    N1685    N        0.35433    0.16293    0.55937    1.000
    Si1686   Si       0.36581    0.17721    0.59975    1.000
    N1687    N        0.45175    0.15505    0.55483    1.000
    Si1688   Si       0.44131    0.14818    0.59693    1.000
    N1689    N        0.40019    0.15590    0.61164    1.000
    N1690    N        0.46866    0.17554    0.61366    1.000
    N1691    N        0.40557    0.17478    0.50837    1.000
    Si1692   Si       0.36490    0.18085    0.52165    1.000
    N1693    N        0.32866    0.16618    0.62216    1.000
    N1694    N        0.34770    0.16059    0.69584    1.000
    Si1695   Si       0.26868    0.14393    0.67529    1.000
    Si1696   Si       0.33629    0.17291    0.73536    1.000
    N1697    N        0.26944    0.13056    0.63399    1.000
    N1698    N        0.41749    0.15443    0.70037    1.000
    Si1699   Si       0.44761    0.12849    0.71796    1.000
    Si1700   Si       0.37891    0.13175    0.70171    1.000
    N1701    N        0.48734    0.13526    0.70373    1.000
    Si1702   Si       0.33038    0.18207    0.66299    1.000
    N1703    N        0.28994    0.18363    0.67590    1.000
    N1704    N        0.34042    0.16369    0.81839    1.000
    Si1705   Si       0.27243    0.15107    0.77379    1.000
    N1706    N        0.27790    0.13532    0.81500    1.000
    Si1707   Si       0.31317    0.13997    0.84236    1.000
    N1708    N        0.30873    0.14499    0.75083    1.000
    Si1709   Si       0.24411    0.15270    0.83865    1.000
    N1710    N        0.46612    0.14451    0.91858    1.000
    N1711    N        0.44686    0.14894    0.75757    1.000
    Si1712   Si       0.37147    0.14288    0.79389    1.000
    N1713    N        0.47345    0.16213    0.81906    1.000
    N1714    N        0.37498    0.16310    0.75686    1.000
    N1715    N        0.40886    0.13540    0.81577    1.000
    Si1716   Si       0.43083    0.17149    0.82831    1.000
    Si1717   Si       0.47508    0.13384    0.78692    1.000
    Si1718   Si       0.41530    0.17965    0.75836    1.000
    N1719    N        0.30122    0.16060    0.87822    1.000
    Si1720   Si       0.29621    0.15191    0.91947    1.000
    N1721    N        0.33143    0.15827    0.94473    1.000
    N1722    N        0.25482    0.16514    0.92863    1.000
    Si1723   Si       0.36229    0.12993    0.95478    1.000
    Si1724   Si       0.42614    0.13827    0.89880    1.000
    N1725    N        0.42625    0.17099    0.86998    1.000
    N1726    N        0.39579    0.14103    0.92749    1.000
    Si1727   Si       0.46135    0.14638    0.96606    1.000
    N1728    N        0.43903    0.17992    0.98034    1.000
    N1729    N        0.26978    0.22103    0.01991    1.000
    Si1730   Si       0.31240    0.22983    0.01460    1.000
    Si1731   Si       0.35008    0.21996    0.10815    1.000
    N1732    N        0.31262    0.19857    0.09797    1.000
    N1733    N        0.33088    0.19287    0.03006    1.000
    Si1734   Si       0.24276    0.18894    0.02795    1.000
    N1735    N        0.24892    0.20607    0.12642    1.000
    N1736    N        0.36953    0.23108    0.07155    1.000
    N1737    N        0.43390    0.20800    0.09805    1.000
    Si1738   Si       0.40766    0.21323    0.06600    1.000
    N1739    N        0.42765    0.23186    0.02989    1.000
    Si1740   Si       0.43489    0.18894    0.02231    1.000
    N1741    N        0.30867    0.22332    0.18712    1.000
    Si1742   Si       0.28311    0.23033    0.22063    1.000
    N1743    N        0.24482    0.20771    0.21899    1.000
    Si1744   Si       0.33271    0.18576    0.18567    1.000
    N1745    N        0.42977    0.22284    0.16172    1.000
    N1746    N        0.37381    0.19296    0.19556    1.000
    N1747    N        0.37238    0.18684    0.12580    1.000
    Si1748   Si       0.39998    0.19101    0.15962    1.000
    Si1749   Si       0.43453    0.23841    0.20117    1.000
    N1750    N        0.43348    0.20729    0.23104    1.000
    Si1751   Si       0.44837    0.24105    0.12487    1.000
    N1752    N        0.30194    0.20918    0.25500    1.000
    N1753    N        0.35850    0.22317    0.29897    1.000
    Si1754   Si       0.32653    0.23907    0.27249    1.000
    N1755    N        0.39268    0.22836    0.45812    1.000
    Si1756   Si       0.46550    0.20606    0.26288    1.000
    Si1757   Si       0.41708    0.19894    0.35285    1.000
    N1758    N        0.42149    0.23349    0.32812    1.000
    Si1759   Si       0.40504    0.23465    0.41606    1.000
    N1760    N        0.32464    0.23528    0.47658    1.000
    N1761    N        0.25797    0.21793    0.39311    1.000
    Si1762   Si       0.34558    0.19625    0.38656    1.000
    Si1763   Si       0.28781    0.22266    0.42541    1.000
    Si1764   Si       0.30784    0.19602    0.48445    1.000
    N1765    N        0.32551    0.23179    0.40267    1.000
    N1766    N        0.38723    0.21165    0.38407    1.000
    N1767    N        0.44865    0.22698    0.40674    1.000
    Si1768   Si       0.42011    0.19694    0.47364    1.000
    N1769    N        0.29758    0.18266    0.44302    1.000
    Si1770   Si       0.45714    0.18411    0.41305    1.000
    N1771    N        0.45484    0.21069    0.49407    1.000
    Si1772   Si       0.27332    0.21426    0.58537    1.000
    N1773    N        0.30799    0.23929    0.57826    1.000
    Si1774   Si       0.35082    0.23971    0.56791    1.000
    N1775    N        0.27579    0.19216    0.51162    1.000
    N1776    N        0.36363    0.22574    0.52726    1.000
    N1777    N        0.36900    0.22117    0.60310    1.000
    N1778    N        0.42952    0.22278    0.55305    1.000
    Si1779   Si       0.44087    0.18821    0.53151    1.000
    Si1780   Si       0.32890    0.24070    0.70066    1.000
    N1781    N        0.25598    0.22009    0.62610    1.000
    N1782    N        0.31831    0.21418    0.73251    1.000
    N1783    N        0.34751    0.22351    0.66634    1.000
    Si1784   Si       0.26722    0.21881    0.66787    1.000
    N1785    N        0.41744    0.20908    0.65455    1.000
    Si1786   Si       0.38498    0.23298    0.64295    1.000
    Si1787   Si       0.43315    0.19310    0.69102    1.000
    N1788    N        0.47553    0.20061    0.67738    1.000
    N1789    N        0.42358    0.21281    0.73062    1.000
    Si1790   Si       0.45969    0.20945    0.63819    1.000
    N1791    N        0.46007    0.24420    0.61128    1.000
    N1792    N        0.31657    0.21849    0.85162    1.000
    Si1793   Si       0.34887    0.20744    0.82402    1.000
    N1794    N        0.26573    0.19325    0.77952    1.000
    N1795    N        0.24722    0.19449    0.85055    1.000
    Si1796   Si       0.24277    0.21509    0.81075    1.000
    Si1797   Si       0.27989    0.22047    0.74966    1.000
    N1798    N        0.36282    0.24093    0.79906    1.000
    N1799    N        0.41230    0.19638    0.79870    1.000
    N1800    N        0.37586    0.21197    0.85856    1.000
    N1801    N        0.43667    0.23322    0.84962    1.000
    N1802    N        0.44167    0.21030    0.92043    1.000
    Si1803   Si       0.28657    0.20210    0.87755    1.000
    N1804    N        0.32116    0.23565    0.97238    1.000
    Si1805   Si       0.34210    0.20219    0.95142    1.000
    Si1806   Si       0.34625    0.22370    0.88716    1.000
    N1807    N        0.31257    0.21152    0.91475    1.000
    N1808    N        0.25388    0.23307    0.95480    1.000
    N1809    N        0.37612    0.19645    0.98133    1.000
    Si1810   Si       0.41578    0.21246    0.88181    1.000
    Si1811   Si       0.41030    0.20723    0.95559    1.000
    N1812    N        0.37669    0.21737    0.92383    1.000
    Si1813   Si       0.47543    0.18564    0.91090    1.000
    N1814    N        0.31605    0.26630    0.03991    1.000
    Si1815   Si       0.35583    0.26827    0.05493    1.000
    N1816    N        0.23859    0.26388    0.08806    1.000
    N1817    N        0.36711    0.29699    0.08508    1.000
    N1818    N        0.38199    0.29036    0.02331    1.000
    Si1819   Si       0.41749    0.26712    0.00780    1.000
    N1820    N        0.44816    0.29652    0.00194    1.000
    N1821    N        0.42936    0.28036    0.11839    1.000
    N1822    N        0.28514    0.27050    0.14267    1.000
    N1823    N        0.27334    0.27336    0.22757    1.000
    Si1824   Si       0.25159    0.24952    0.12838    1.000
    N1825    N        0.35320    0.25403    0.13467    1.000
    Si1826   Si       0.31276    0.29394    0.22820    1.000
    Si1827   Si       0.32061    0.25918    0.16306    1.000
    N1828    N        0.32390    0.29696    0.18687    1.000
    N1829    N        0.34242    0.26598    0.24357    1.000
    Si1830   Si       0.23895    0.28525    0.19965    1.000
    Si1831   Si       0.38431    0.28559    0.12261    1.000
    N1832    N        0.47301    0.26019    0.19853    1.000
    N1833    N        0.40685    0.26918    0.21260    1.000
    Si1834   Si       0.38269    0.28213    0.24596    1.000
    N1835    N        0.30023    0.26968    0.29094    1.000
    Si1836   Si       0.32329    0.28858    0.32472    1.000
    N1837    N        0.29960    0.27608    0.35732    1.000
    Si1838   Si       0.26261    0.27759    0.27202    1.000
    N1839    N        0.36216    0.27450    0.34152    1.000
    Si1840   Si       0.26578    0.25090    0.36813    1.000
    N1841    N        0.39831    0.28129    0.28547    1.000
    Si1842   Si       0.45616    0.25517    0.31994    1.000
    Si1843   Si       0.38663    0.25364    0.31454    1.000
    N1844    N        0.44938    0.29788    0.32604    1.000
    N1845    N        0.48543    0.25388    0.35426    1.000
    N1846    N        0.35918    0.29092    0.48987    1.000
    Si1847   Si       0.24004    0.27866    0.44116    1.000
    N1848    N        0.25432    0.28396    0.39942    1.000
    N1849    N        0.26567    0.24771    0.45488    1.000
    Si1850   Si       0.34739    0.27128    0.38427    1.000
    Si1851   Si       0.29254    0.26705    0.48319    1.000
    Si1852   Si       0.48812    0.24438    0.39517    1.000
    N1853    N        0.38816    0.27451    0.40514    1.000
    Si1854   Si       0.36554    0.24627    0.48840    1.000
    N1855    N        0.47620    0.24209    0.28350    1.000
    N1856    N        0.28203    0.27256    0.52445    1.000
    Si1857   Si       0.30334    0.27947    0.56087    1.000
    N1858    N        0.35046    0.28316    0.56216    1.000
    Si1859   Si       0.24087    0.26009    0.53473    1.000
    N1860    N        0.41033    0.29297    0.52556    1.000
    N1861    N        0.41125    0.28090    0.59531    1.000
    N1862    N        0.47147    0.28473    0.55149    1.000
    Si1863   Si       0.42997    0.26793    0.55871    1.000
    Si1864   Si       0.43907    0.27703    0.63292    1.000
    N1865    N        0.29034    0.25313    0.68330    1.000
    N1866    N        0.34972    0.27709    0.71403    1.000
    Si1867   Si       0.27638    0.29495    0.68278    1.000
    Si1868   Si       0.38642    0.29286    0.69412    1.000
    N1869    N        0.47228    0.27186    0.66978    1.000
    N1870    N        0.47967    0.24513    0.73347    1.000
    N1871    N        0.42129    0.29034    0.72341    1.000
    Si1872   Si       0.43544    0.25129    0.74198    1.000
    N1873    N        0.40154    0.27208    0.65860    1.000
    N1874    N        0.32504    0.28608    0.83830    1.000
    Si1875   Si       0.29364    0.25616    0.84390    1.000
    N1876    N        0.26645    0.25158    0.81263    1.000
    Si1877   Si       0.26951    0.28278    0.77902    1.000
    N1878    N        0.31193    0.28664    0.77361    1.000
    Si1879   Si       0.34727    0.28086    0.80064    1.000
    Si1880   Si       0.36303    0.29057    0.86461    1.000
    N1881    N        0.43165    0.26120    0.78649    1.000
    Si1882   Si       0.45770    0.29269    0.79952    1.000
    N1883    N        0.39593    0.27706    0.84163    1.000
    Si1884   Si       0.43721    0.27296    0.86618    1.000
    N1885    N        0.48348    0.25537    0.95948    1.000
    N1886    N        0.29216    0.28779    0.93197    1.000
    N1887    N        0.34931    0.26573    0.89724    1.000
    Si1888   Si       0.26021    0.28558    0.89964    1.000
    N1889    N        0.27462    0.24893    0.88327    1.000
    N1890    N        0.36088    0.29530    0.94997    1.000
    Si1891   Si       0.25004    0.25064    0.99510    1.000
    N1892    N        0.26920    0.28856    0.99386    1.000
    Si1893   Si       0.29288    0.24370    0.93796    1.000
    Si1894   Si       0.45015    0.25438    0.92888    1.000
    N1895    N        0.41289    0.25078    0.96600    1.000
    N1896    N        0.47343    0.26450    0.89306    1.000
    N1897    N        0.41508    0.27251    0.90511    1.000
    Si1898   Si       0.38118    0.26187    0.93142    1.000
    Si1899   Si       0.40652    0.23996    0.81576    1.000
    N1900    N        0.25624    0.25667    0.74546    1.000
    N1901    N        0.26868    0.32437    0.05499    1.000
    N1902    N        0.32058    0.32283    0.00006    1.000
    N1903    N        0.24678    0.32397    0.11951    1.000
    Si1904   Si       0.23814    0.30590    0.07974    1.000
    Si1905   Si       0.40000    0.30577    0.19097    1.000
    Si1906   Si       0.44887    0.31324    0.09616    1.000
    N1907    N        0.42516    0.32456    0.06303    1.000
    Si1908   Si       0.44914    0.33211    0.02849    1.000
    Si1909   Si       0.38280    0.32534    0.05389    1.000
    N1910    N        0.45007    0.35146    0.11788    1.000
    Si1911   Si       0.47536    0.30397    0.19083    1.000
    Si1912   Si       0.43980    0.36032    0.16010    1.000
    Si1913   Si       0.34913    0.35101    0.23773    1.000
    N1914    N        0.25523    0.32202    0.18594    1.000
    Si1915   Si       0.27652    0.31508    0.14932    1.000
    N1916    N        0.30586    0.34798    0.14783    1.000
    Si1917   Si       0.34184    0.33447    0.16776    1.000
    N1918    N        0.31180    0.33257    0.24828    1.000
    N1919    N        0.37699    0.31413    0.15579    1.000
    N1920    N        0.37945    0.32091    0.22845    1.000
    N1921    N        0.43784    0.32387    0.18174    1.000
    Si1922   Si       0.23629    0.36123    0.18988    1.000
    Si1923   Si       0.29560    0.30267    0.02940    1.000
    N1924    N        0.32381    0.33118    0.31271    1.000
    Si1925   Si       0.29004    0.34043    0.28425    1.000
    N1926    N        0.25201    0.31685    0.28473    1.000
    N1927    N        0.25733    0.32941    0.35898    1.000
    Si1928   Si       0.35642    0.35811    0.31280    1.000
    N1929    N        0.43755    0.34223    0.26997    1.000
    Si1930   Si       0.41895    0.31670    0.30003    1.000
    N1931    N        0.39798    0.34702    0.32520    1.000
    Si1932   Si       0.46375    0.32590    0.35401    1.000
    Si1933   Si       0.47714    0.35120    0.25248    1.000
    N1934    N        0.29373    0.30853    0.47008    1.000
    Si1935   Si       0.29002    0.30972    0.38796    1.000
    Si1936   Si       0.27054    0.34220    0.45568    1.000
    Si1937   Si       0.33118    0.32428    0.48391    1.000
    N1938    N        0.28490    0.34862    0.41502    1.000
    Si1939   Si       0.33387    0.35101    0.41491    1.000
    N1940    N        0.33274    0.31057    0.39718    1.000
    Si1941   Si       0.46883    0.31004    0.42775    1.000
    N1942    N        0.38515    0.34929    0.41952    1.000
    N1943    N        0.43346    0.30664    0.45274    1.000
    Si1944   Si       0.40745    0.31158    0.41606    1.000
    Si1945   Si       0.42744    0.31962    0.49352    1.000
    N1946    N        0.44300    0.31879    0.39199    1.000
    N1947    N        0.49486    0.34534    0.43871    1.000
    N1948    N        0.40463    0.35596    0.49483    1.000
    N1949    N        0.33064    0.33502    0.52695    1.000
    Si1950   Si       0.24607    0.32796    0.56972    1.000
    Si1951   Si       0.30575    0.32867    0.61580    1.000
    N1952    N        0.26589    0.35777    0.54494    1.000
    N1953    N        0.28288    0.30771    0.58604    1.000
    Si1954   Si       0.36967    0.31217    0.53345    1.000
    N1955    N        0.38169    0.33804    0.56787    1.000
    Si1956   Si       0.48118    0.30931    0.58651    1.000
    N1957    N        0.47103    0.32823    0.49915    1.000
    Si1958   Si       0.37314    0.30368    0.59275    1.000
    N1959    N        0.40475    0.36110    0.62769    1.000
    N1960    N        0.34871    0.31686    0.62532    1.000
    N1961    N        0.28163    0.31719    0.72031    1.000
    N1962    N        0.28540    0.32656    0.65432    1.000
    N1963    N        0.33255    0.34552    0.73912    1.000
    Si1964   Si       0.32484    0.30419    0.73477    1.000
    Si1965   Si       0.43775    0.33508    0.72638    1.000
    Si1966   Si       0.44467    0.35149    0.63872    1.000
    N1967    N        0.45002    0.33831    0.68246    1.000
    N1968    N        0.40184    0.35354    0.74610    1.000
    N1969    N        0.37816    0.33535    0.68762    1.000
    N1970    N        0.45961    0.31456    0.62226    1.000
    Si1971   Si       0.36719    0.34916    0.64925    1.000
    Si1972   Si       0.31040    0.32687    0.85242    1.000
    N1973    N        0.30734    0.34786    0.81044    1.000
    Si1974   Si       0.34058    0.34863    0.78090    1.000
    Si1975   Si       0.26381    0.35164    0.80011    1.000
    N1976    N        0.24291    0.31471    0.78957    1.000
    N1977    N        0.45322    0.35702    0.88221    1.000
    N1978    N        0.37004    0.32005    0.79362    1.000
    N1979    N        0.44723    0.33051    0.78015    1.000
    Si1980   Si       0.40581    0.34493    0.78760    1.000
    Si1981   Si       0.48190    0.33434    0.85629    1.000
    N1982    N        0.27245    0.31654    0.87388    1.000
    N1983    N        0.25081    0.34668    0.96604    1.000
    Si1984   Si       0.28723    0.31899    0.96626    1.000
    N1985    N        0.31102    0.34553    0.93809    1.000
    N1986    N        0.34545    0.32863    0.88283    1.000
    Si1987   Si       0.33177    0.30862    0.91991    1.000
    Si1988   Si       0.36161    0.30920    0.98803    1.000
    N1989    N        0.37664    0.35103    0.98574    1.000
    Si1990   Si       0.48126    0.35379    0.97850    1.000
    N1991    N        0.45667    0.30232    0.84147    1.000
    N1992    N        0.26590    0.38690    0.02709    1.000
    N1993    N        0.29660    0.38106    0.08823    1.000
    Si1994   Si       0.33748    0.38945    0.07380    1.000
    N1995    N        0.35135    0.39866    0.11417    1.000
    Si1996   Si       0.26415    0.36659    0.06578    1.000
    Si1997   Si       0.33895    0.36206    0.00799    1.000
    Si1998   Si       0.29665    0.41604    0.01991    1.000
    N1999    N        0.43590    0.37292    0.01694    1.000
    Si2000   Si       0.47017    0.40056    0.02165    1.000
    Si2001   Si       0.45433    0.39266    0.09831    1.000
    N2002    N        0.48224    0.39791    0.06349    1.000
    N2003    N        0.41583    0.41334    0.09118    1.000
    Si2004   Si       0.31006    0.38744    0.12986    1.000
    N2005    N        0.25405    0.38630    0.21920    1.000
    N2006    N        0.35043    0.36713    0.19666    1.000
    N2007    N        0.41373    0.38955    0.22495    1.000
    Si2008   Si       0.45207    0.40409    0.21397    1.000
    N2009    N        0.40286    0.38611    0.15733    1.000
    Si2010   Si       0.38925    0.41397    0.12680    1.000
    Si2011   Si       0.38340    0.39524    0.19563    1.000
    N2012    N        0.46823    0.38252    0.18056    1.000
    N2013    N        0.35492    0.35913    0.04712    1.000
    N2014    N        0.48043    0.39344    0.24435    1.000
    N2015    N        0.27524    0.38145    0.28466    1.000
    N2016    N        0.34063    0.39736    0.32170    1.000
    N2017    N        0.27586    0.39339    0.35852    1.000
    Si2018   Si       0.31878    0.40469    0.35779    1.000
    Si2019   Si       0.25242    0.39549    0.31931    1.000
    Si2020   Si       0.34884    0.41196    0.28274    1.000
    Si2021   Si       0.27950    0.40606    0.24982    1.000
    N2022    N        0.36743    0.37290    0.27202    1.000
    N2023    N        0.46215    0.37038    0.34625    1.000
    Si2024   Si       0.42177    0.38273    0.33517    1.000
    N2025    N        0.42316    0.40362    0.29650    1.000
    Si2026   Si       0.41103    0.37655    0.26504    1.000
    N2027    N        0.41081    0.40526    0.37085    1.000
    Si2028   Si       0.38181    0.36813    0.45946    1.000
    N2029    N        0.34106    0.38594    0.38906    1.000
    N2030    N        0.27975    0.38167    0.47483    1.000
    Si2031   Si       0.24720    0.41163    0.47162    1.000
    Si2032   Si       0.31951    0.39494    0.48328    1.000
    Si2033   Si       0.25660    0.36386    0.38373    1.000
    N2034    N        0.33955    0.35996    0.46185    1.000
    Si2035   Si       0.38301    0.38987    0.40169    1.000
    N2036    N        0.38660    0.40725    0.44076    1.000
    Si2037   Si       0.48733    0.36346    0.47903    1.000
    N2038    N        0.32645    0.39902    0.52655    1.000
    Si2039   Si       0.31385    0.39723    0.61991    1.000
    Si2040   Si       0.30689    0.36560    0.54759    1.000
    N2041    N        0.31398    0.36518    0.59021    1.000
    N2042    N        0.46996    0.38205    0.62163    1.000
    N2043    N        0.37281    0.40807    0.58310    1.000
    N2044    N        0.43394    0.38151    0.56081    1.000
    Si2045   Si       0.47523    0.38334    0.57801    1.000
    Si2046   Si       0.42431    0.38744    0.51816    1.000
    Si2047   Si       0.39933    0.37421    0.58590    1.000
    N2048    N        0.27765    0.38291    0.69790    1.000
    N2049    N        0.33680    0.38129    0.65366    1.000
    N2050    N        0.27102    0.39042    0.63224    1.000
    Si2051   Si       0.35084    0.41644    0.67586    1.000
    Si2052   Si       0.26352    0.36174    0.66216    1.000
    N2053    N        0.36415    0.40212    0.71391    1.000
    N2054    N        0.46728    0.36923    0.73561    1.000
    Si2055   Si       0.45980    0.41161    0.73157    1.000
    Si2056   Si       0.28923    0.35844    0.73143    1.000
    Si2057   Si       0.36848    0.36076    0.72008    1.000
    N2058    N        0.45893    0.39407    0.49198    1.000
    Si2059   Si       0.32047    0.38932    0.82709    1.000
    N2060    N        0.26295    0.37510    0.76364    1.000
    N2061    N        0.35007    0.38810    0.79234    1.000
    N2062    N        0.24323    0.36829    0.83424    1.000
    N2063    N        0.35917    0.38629    0.85079    1.000
    N2064    N        0.30283    0.37221    0.86785    1.000
    Si2065   Si       0.23640    0.40828    0.75374    1.000
    Si2066   Si       0.47213    0.36853    0.78364    1.000
    Si2067   Si       0.44522    0.38154    0.84425    1.000
    N2068    N        0.41469    0.37582    0.81453    1.000
    Si2069   Si       0.38280    0.40543    0.81774    1.000
    N2070    N        0.46468    0.41403    0.77711    1.000
    N2071    N        0.48355    0.36710    0.82494    1.000
    Si2072   Si       0.44682    0.38449    0.91509    1.000
    Si2073   Si       0.31319    0.38981    0.94565    1.000
    N2074    N        0.34958    0.39636    0.92333    1.000
    Si2075   Si       0.34385    0.37335    0.88718    1.000
    Si2076   Si       0.24621    0.40355    0.93615    1.000
    N2077    N        0.31836    0.39412    0.98718    1.000
    N2078    N        0.28554    0.41928    0.93001    1.000
    N2079    N        0.41271    0.40858    0.90450    1.000
    N2080    N        0.39985    0.41409    0.97002    1.000
    Si2081   Si       0.41247    0.37449    0.98009    1.000
    N2082    N        0.48067    0.40944    0.91967    1.000
    Si2083   Si       0.26090    0.35946    0.87355    1.000
    N2084    N        0.44538    0.36115    0.95315    1.000
    Si2085   Si       0.35399    0.45923    0.05329    1.000
    N2086    N        0.27782    0.45449    0.01533    1.000
    N2087    N        0.33135    0.42234    0.04801    1.000
    N2088    N        0.39036    0.45487    0.03236    1.000
    Si2089   Si       0.41372    0.45154    0.07084    1.000
    N2090    N        0.45057    0.43989    0.01775    1.000
    Si2091   Si       0.47257    0.47062    0.03999    1.000
    Si2092   Si       0.47679    0.46288    0.11632    1.000
    N2093    N        0.45455    0.46849    0.07844    1.000
    N2094    N        0.37678    0.46689    0.09054    1.000
    Si2095   Si       0.26218    0.46937    0.21179    1.000
    Si2096   Si       0.33790    0.45376    0.22551    1.000
    Si2097   Si       0.30544    0.46321    0.15787    1.000
    N2098    N        0.30212    0.46156    0.20036    1.000
    Si2099   Si       0.24757    0.42495    0.14936    1.000
    N2100    N        0.29265    0.42333    0.14671    1.000
    N2101    N        0.47590    0.41986    0.12499    1.000
    N2102    N        0.39938    0.45094    0.14913    1.000
    Si2103   Si       0.47904    0.46763    0.18866    1.000
    Si2104   Si       0.40637    0.46038    0.19235    1.000
    N2105    N        0.44421    0.44450    0.19937    1.000
    N2106    N        0.37348    0.43703    0.20741    1.000
    Si2107   Si       0.41366    0.44618    0.99676    1.000
    Si2108   Si       0.24788    0.46557    0.28583    1.000
    N2109    N        0.31552    0.44811    0.36055    1.000
    N2110    N        0.32135    0.42077    0.25153    1.000
    N2111    N        0.25546    0.44381    0.24797    1.000
    Si2112   Si       0.28605    0.47729    0.35002    1.000
    N2113    N        0.37316    0.44791    0.27998    1.000
    Si2114   Si       0.41529    0.44629    0.29306    1.000
    N2115    N        0.41238    0.46087    0.33505    1.000
    N2116    N        0.45602    0.46823    0.28495    1.000
    Si2117   Si       0.43236    0.44278    0.36834    1.000
    N2118    N        0.25036    0.46961    0.37394    1.000
    Si2119   Si       0.30348    0.46516    0.47341    1.000
    N2120    N        0.33431    0.43443    0.46979    1.000
    Si2121   Si       0.25225    0.46918    0.41674    1.000
    Si2122   Si       0.32367    0.46732    0.39782    1.000
    N2123    N        0.29498    0.47317    0.43045    1.000
    N2124    N        0.26963    0.44688    0.49305    1.000
    N2125    N        0.36269    0.46636    0.41302    1.000
    N2126    N        0.45998    0.44455    0.44597    1.000
    N2127    N        0.47422    0.43216    0.37711    1.000
    Si2128   Si       0.47230    0.46309    0.40995    1.000
    Si2129   Si       0.37314    0.44750    0.45041    1.000
    Si2130   Si       0.46956    0.43595    0.48614    1.000
    N2131    N        0.43360    0.47727    0.39451    1.000
    N2132    N        0.39661    0.47753    0.47336    1.000
    Si2133   Si       0.25147    0.44327    0.53422    1.000
    N2134    N        0.34817    0.46237    0.54816    1.000
    N2135    N        0.27731    0.47110    0.55547    1.000
    N2136    N        0.32946    0.43797    0.62389    1.000
    Si2137   Si       0.36110    0.42275    0.54394    1.000
    Si2138   Si       0.48625    0.46349    0.54788    1.000
    Si2139   Si       0.37195    0.43870    0.61317    1.000
    N2140    N        0.45401    0.45912    0.51845    1.000
    Si2141   Si       0.41123    0.46494    0.51526    1.000
    N2142    N        0.39702    0.42166    0.51871    1.000
    Si2143   Si       0.48342    0.44426    0.61190    1.000
    N2144    N        0.42676    0.43357    0.71255    1.000
    Si2145   Si       0.30484    0.46808    0.64716    1.000
    Si2146   Si       0.27616    0.42828    0.69438    1.000
    N2147    N        0.25650    0.43967    0.73034    1.000
    N2148    N        0.26167    0.45726    0.66249    1.000
    N2149    N        0.31666    0.44058    0.68765    1.000
    N2150    N        0.38615    0.43129    0.65506    1.000
    Si2151   Si       0.42339    0.44890    0.67290    1.000
    N2152    N        0.46005    0.44615    0.64833    1.000
    N2153    N        0.36806    0.47285    0.72723    1.000
    Si2154   Si       0.38808    0.43228    0.73446    1.000
    Si2155   Si       0.29644    0.46483    0.84806    1.000
    N2156    N        0.30336    0.42881    0.82517    1.000
    N2157    N        0.26022    0.45925    0.87113    1.000
    Si2158   Si       0.47741    0.45093    0.79854    1.000
    N2159    N        0.39554    0.43973    0.83920    1.000
    Si2160   Si       0.40480    0.46587    0.80541    1.000
    N2161    N        0.39498    0.43223    0.77766    1.000
    N2162    N        0.44594    0.47698    0.81068    1.000
    N2163    N        0.32049    0.46297    0.88603    1.000
    Si2164   Si       0.28292    0.45778    0.91075    1.000
    N2165    N        0.43565    0.47439    0.89576    1.000
    Si2166   Si       0.38154    0.42382    0.93200    1.000
    N2167    N        0.45714    0.41910    0.86068    1.000
    N2168    N        0.37537    0.46563    0.92219    1.000
    Si2169   Si       0.42166    0.44076    0.87318    1.000
    N2170    N        0.32616    0.49289    0.05078    1.000
    Si2171   Si       0.28497    0.49021    0.03755    1.000
    N2172    N        0.28315    0.52400    0.00848    1.000
    N2173    N        0.25620    0.49560    0.07091    1.000
    Si2174   Si       0.34030    0.53087    0.06419    1.000
    Si2175   Si       0.24337    0.48768    0.11069    1.000
    N2176    N        0.47158    0.50873    0.02000    1.000
    Si2177   Si       0.25935    0.52046    0.16262    1.000
    N2178    N        0.34070    0.48805    0.15008    1.000
    N2179    N        0.25389    0.51104    0.20586    1.000
    N2180    N        0.34993    0.49434    0.23935    1.000
    Si2181   Si       0.33143    0.53160    0.14679    1.000
    N2182    N        0.27691    0.48815    0.14042    1.000
    Si2183   Si       0.24209    0.53180    0.24225    1.000
    Si2184   Si       0.44099    0.52343    0.21740    1.000
    N2185    N        0.47816    0.50011    0.21690    1.000
    Si2186   Si       0.36861    0.52662    0.21596    1.000
    Si2187   Si       0.44613    0.52844    0.14578    1.000
    N2188    N        0.40465    0.50374    0.20490    1.000
    Si2189   Si       0.37896    0.48387    0.13091    1.000
    N2190    N        0.40428    0.51845    0.12936    1.000
    N2191    N        0.47118    0.49168    0.14710    1.000
    N2192    N        0.33542    0.51215    0.31078    1.000
    Si2193   Si       0.29611    0.52653    0.29958    1.000
    N2194    N        0.27376    0.49197    0.30980    1.000
    Si2195   Si       0.33689    0.53155    0.35329    1.000
    Si2196   Si       0.35915    0.49097    0.28077    1.000
    Si2197   Si       0.45632    0.51162    0.28804    1.000
    N2198    N        0.39703    0.50933    0.29043    1.000
    Si2199   Si       0.40805    0.50267    0.33378    1.000
    N2200    N        0.44494    0.52517    0.32928    1.000
    N2201    N        0.37866    0.51492    0.36634    1.000
    N2202    N        0.24229    0.50960    0.43002    1.000
    N2203    N        0.30821    0.50767    0.37925    1.000
    Si2204   Si       0.28365    0.52186    0.41291    1.000
    Si2205   Si       0.39737    0.52183    0.46734    1.000
    Si2206   Si       0.39480    0.49248    0.40117    1.000
    N2207    N        0.39283    0.52914    0.42642    1.000
    Si2208   Si       0.26293    0.50134    0.58848    1.000
    N2209    N        0.33767    0.52324    0.56365    1.000
    Si2210   Si       0.31304    0.49083    0.54290    1.000
    N2211    N        0.29616    0.50001    0.61650    1.000
    N2212    N        0.31406    0.49815    0.49932    1.000
    N2213    N        0.27520    0.53754    0.56281    1.000
    N2214    N        0.47498    0.48090    0.58734    1.000
    Si2215   Si       0.37141    0.49567    0.56498    1.000
    N2216    N        0.40237    0.50244    0.53553    1.000
    Si2217   Si       0.46722    0.52403    0.58629    1.000
    N2218    N        0.43315    0.53157    0.61108    1.000
    N2219    N        0.38699    0.47823    0.60114    1.000
    Si2220   Si       0.40124    0.50830    0.62943    1.000
    N2221    N        0.47558    0.49335    0.69526    1.000
    Si2222   Si       0.25884    0.48498    0.73850    1.000
    N2223    N        0.32994    0.50082    0.66867    1.000
    N2224    N        0.29927    0.49341    0.73040    1.000
    Si2225   Si       0.33002    0.52578    0.63305    1.000
    Si2226   Si       0.30550    0.53466    0.74061    1.000
    Si2227   Si       0.33137    0.47814    0.70580    1.000
    Si2228   Si       0.43818    0.51647    0.69382    1.000
    N2229    N        0.41382    0.49291    0.66669    1.000
    N2230    N        0.41326    0.52597    0.73012    1.000
    N2231    N        0.46509    0.53518    0.54527    1.000
    Si2232   Si       0.27173    0.51382    0.80609    1.000
    N2233    N        0.30820    0.50122    0.82715    1.000
    Si2234   Si       0.35198    0.51629    0.82254    1.000
    N2235    N        0.25002    0.48409    0.78196    1.000
    N2236    N        0.24387    0.53360    0.83226    1.000
    Si2237   Si       0.24051    0.51572    0.91987    1.000
    N2238    N        0.37456    0.50632    0.85937    1.000
    N2239    N        0.37791    0.49917    0.79163    1.000
    Si2240   Si       0.46047    0.51583    0.82406    1.000
    N2241    N        0.47246    0.52152    0.86449    1.000
    Si2242   Si       0.37948    0.50842    0.74753    1.000
    N2243    N        0.47313    0.51159    0.94127    1.000
    Si2244   Si       0.25847    0.50594    0.97852    1.000
    Si2245   Si       0.35051    0.49227    0.89560    1.000
    N2246    N        0.33441    0.53107    0.90400    1.000
    N2247    N        0.27063    0.48703    0.93774    1.000
    Si2248   Si       0.40792    0.53244    0.86875    1.000
    Si2249   Si       0.47239    0.49378    0.89943    1.000
    Si2250   Si       0.45196    0.50766    0.98069    1.000
    Si2251   Si       0.41230    0.48870    0.92863    1.000
    N2252    N        0.39951    0.52867    0.91552    1.000
    N2253    N        0.42235    0.47852    0.97030    1.000
    N2254    N        0.30858    0.56112    0.06168    1.000
    Si2255   Si       0.29609    0.56412    0.01922    1.000
    Si2256   Si       0.32384    0.58375    0.09839    1.000
    N2257    N        0.33471    0.58111    0.00459    1.000
    N2258    N        0.26819    0.59210    0.00250    1.000
    N2259    N        0.34555    0.54126    0.10622    1.000
    N2260    N        0.40719    0.58334    0.10174    1.000
    N2261    N        0.45206    0.56601    0.05093    1.000
    Si2262   Si       0.41379    0.56001    0.02758    1.000
    Si2263   Si       0.44891    0.58286    0.09158    1.000
    Si2264   Si       0.39012    0.54456    0.09774    1.000
    Si2265   Si       0.48412    0.54849    0.02657    1.000
    N2266    N        0.38273    0.54053    0.05441    1.000
    N2267    N        0.46749    0.55522    0.11929    1.000
    N2268    N        0.35135    0.54886    0.18260    1.000
    N2269    N        0.29084    0.54927    0.15249    1.000
    Si2270   Si       0.27729    0.59128    0.15351    1.000
    Si2271   Si       0.34203    0.59348    0.17555    1.000
    Si2272   Si       0.48690    0.56889    0.19264    1.000
    N2273    N        0.44870    0.54809    0.18443    1.000
    N2274    N        0.37839    0.55923    0.24350    1.000
    N2275    N        0.29882    0.55376    0.33450    1.000
    Si2276   Si       0.27464    0.57772    0.35946    1.000
    N2277    N        0.27465    0.54806    0.26663    1.000
    Si2278   Si       0.28312    0.59033    0.26318    1.000
    Si2279   Si       0.40312    0.55199    0.27860    1.000
    N2280    N        0.40349    0.57562    0.31400    1.000
    Si2281   Si       0.44332    0.57118    0.33524    1.000
    Si2282   Si       0.46099    0.58280    0.25609    1.000
    N2283    N        0.48157    0.57911    0.35945    1.000
    N2284    N        0.46558    0.58952    0.29931    1.000
    N2285    N        0.44170    0.54276    0.25785    1.000
    N2286    N        0.43337    0.53958    0.48565    1.000
    N2287    N        0.35048    0.56858    0.37650    1.000
    N2288    N        0.30550    0.53931    0.44512    1.000
    Si2289   Si       0.28183    0.57795    0.44023    1.000
    N2290    N        0.27129    0.56408    0.39861    1.000
    N2291    N        0.24206    0.57878    0.45583    1.000
    Si2292   Si       0.46033    0.57773    0.39617    1.000
    N2293    N        0.42269    0.57143    0.37816    1.000
    N2294    N        0.46742    0.54615    0.42673    1.000
    N2295    N        0.36726    0.54987    0.48501    1.000
    Si2296   Si       0.38534    0.55237    0.39050    1.000
    Si2297   Si       0.32321    0.53776    0.48493    1.000
    Si2298   Si       0.45360    0.57272    0.46191    1.000
    Si2299   Si       0.31216    0.55610    0.57609    1.000
    Si2300   Si       0.26198    0.55418    0.52511    1.000
    N2301    N        0.29876    0.56731    0.50484    1.000
    N2302    N        0.31023    0.56542    0.61898    1.000
    N2303    N        0.32445    0.59324    0.55812    1.000
    N2304    N        0.23965    0.59030    0.54079    1.000
    N2305    N        0.40868    0.57590    0.53720    1.000
    Si2306   Si       0.47679    0.58020    0.70644    1.000
    Si2307   Si       0.38791    0.58667    0.49848    1.000
    Si2308   Si       0.24280    0.56207    0.71637    1.000
    N2309    N        0.28690    0.56342    0.71560    1.000
    Si2310   Si       0.41919    0.56887    0.73900    1.000
    N2311    N        0.40357    0.59771    0.70923    1.000
    N2312    N        0.37129    0.53946    0.62791    1.000
    Si2313   Si       0.45403    0.56033    0.63629    1.000
    N2314    N        0.45619    0.55318    0.67845    1.000
    Si2315   Si       0.38569    0.58060    0.62518    1.000
    N2316    N        0.42453    0.59224    0.63925    1.000
    Si2317   Si       0.42497    0.53742    0.52667    1.000
    N2318    N        0.48521    0.58419    0.49201    1.000
    Si2319   Si       0.25924    0.56453    0.85807    1.000
    Si2320   Si       0.27315    0.58509    0.77462    1.000
    N2321    N        0.30173    0.56824    0.85614    1.000
    Si2322   Si       0.35391    0.57148    0.77455    1.000
    N2323    N        0.35622    0.56150    0.81871    1.000
    Si2324   Si       0.33822    0.58962    0.85098    1.000
    N2325    N        0.27897    0.54231    0.77580    1.000
    N2326    N        0.31773    0.59508    0.76668    1.000
    N2327    N        0.39740    0.58074    0.77367    1.000
    Si2328   Si       0.40083    0.57508    0.81675    1.000
    Si2329   Si       0.48379    0.57046    0.78116    1.000
    N2330    N        0.46110    0.56947    0.74544    1.000
    Si2331   Si       0.25916    0.57685    0.96243    1.000
    N2332    N        0.29802    0.57465    0.94306    1.000
    Si2333   Si       0.30462    0.56039    0.90306    1.000
    Si2334   Si       0.33546    0.58988    0.96059    1.000
    N2335    N        0.26333    0.54497    0.89686    1.000
    N2336    N        0.33845    0.59561    0.89644    1.000
    N2337    N        0.45012    0.57336    0.93327    1.000
    N2338    N        0.39514    0.57389    0.87517    1.000
    Si2339   Si       0.36724    0.56149    0.90776    1.000
    N2340    N        0.37403    0.57623    0.94920    1.000
    N2341    N        0.42304    0.54059    0.99030    1.000
    N2342    N        0.48615    0.56672    0.98722    1.000
    Si2343   Si       0.41374    0.55685    0.94984    1.000
    N2344    N        0.34895    0.53776    0.74744    1.000
    N2345    N        0.42542    0.54287    0.82871    1.000
    Si2346   Si       0.26170    0.63497    0.01627    1.000
    Si2347   Si       0.26333    0.63193    0.09199    1.000
    N2348    N        0.35105    0.61151    0.07185    1.000
    N2349    N        0.28344    0.63863    0.05281    1.000
    Si2350   Si       0.32516    0.64756    0.05922    1.000
    N2351    N        0.34368    0.64798    0.02088    1.000
    Si2352   Si       0.35889    0.60801    0.02873    1.000
    N2353    N        0.28791    0.60340    0.11393    1.000
    N2354    N        0.40151    0.60361    0.01920    1.000
    N2355    N        0.47290    0.63236    0.01073    1.000
    N2356    N        0.45715    0.62548    0.10445    1.000
    Si2357   Si       0.37957    0.61477    0.10433    1.000
    Si2358   Si       0.43021    0.63430    0.00014    1.000
    N2359    N        0.36900    0.61447    0.20241    1.000
    N2360    N        0.25716    0.61003    0.23042    1.000
    Si2361   Si       0.29470    0.63036    0.21722    1.000
    N2362    N        0.30271    0.61084    0.18037    1.000
    Si2363   Si       0.36287    0.60020    0.24245    1.000
    Si2364   Si       0.46318    0.64113    0.20057    1.000
    N2365    N        0.43001    0.64621    0.17033    1.000
    Si2366   Si       0.38973    0.65063    0.18869    1.000
    N2367    N        0.48838    0.61120    0.18180    1.000
    N2368    N        0.44651    0.61741    0.23651    1.000
    N2369    N        0.35136    0.60151    0.13344    1.000
    Si2370   Si       0.30309    0.64012    0.32294    1.000
    N2371    N        0.34581    0.61827    0.32770    1.000
    N2372    N        0.27429    0.61743    0.29657    1.000
    N2373    N        0.29684    0.61669    0.36544    1.000
    Si2374   Si       0.33878    0.60812    0.37094    1.000
    N2375    N        0.32004    0.60501    0.24487    1.000
    N2376    N        0.38761    0.62227    0.27057    1.000
    Si2377   Si       0.38502    0.61535    0.31200    1.000
    Si2378   Si       0.42001    0.64706    0.25423    1.000
    N2379    N        0.40206    0.64721    0.33748    1.000
    Si2380   Si       0.26858    0.64529    0.38181    1.000
    N2381    N        0.30910    0.61028    0.44393    1.000
    Si2382   Si       0.32332    0.64940    0.42872    1.000
    N2383    N        0.35385    0.63680    0.39861    1.000
    Si2384   Si       0.43122    0.63328    0.44189    1.000
    N2385    N        0.41689    0.59974    0.46639    1.000
    N2386    N        0.46808    0.60995    0.42635    1.000
    N2387    N        0.42146    0.65364    0.40481    1.000
    Si2388   Si       0.34490    0.62465    0.58223    1.000
    N2389    N        0.28465    0.63777    0.51787    1.000
    Si2390   Si       0.24928    0.63270    0.54429    1.000
    N2391    N        0.25189    0.64157    0.58816    1.000
    Si2392   Si       0.31567    0.60603    0.51694    1.000
    N2393    N        0.31611    0.63321    0.61303    1.000
    N2394    N        0.35681    0.61711    0.50553    1.000
    N2395    N        0.45532    0.61183    0.58102    1.000
    Si2396   Si       0.41758    0.60998    0.56335    1.000
    N2397    N        0.38410    0.60549    0.58911    1.000
    N2398    N        0.41275    0.64424    0.53566    1.000
    N2399    N        0.48079    0.64498    0.52546    1.000
    Si2400   Si       0.48608    0.63805    0.56949    1.000
    Si2401   Si       0.37283    0.65349    0.52319    1.000
    N2402    N        0.34068    0.63184    0.71348    1.000
    Si2403   Si       0.25960    0.64204    0.68060    1.000
    N2404    N        0.29092    0.61137    0.67336    1.000
    N2405    N        0.28124    0.64034    0.72829    1.000
    Si2406   Si       0.30284    0.60372    0.71528    1.000
    Si2407   Si       0.31714    0.60061    0.64086    1.000
    N2408    N        0.35756    0.60144    0.65430    1.000
    N2409    N        0.46684    0.62322    0.69444    1.000
    Si2410   Si       0.46677    0.65273    0.72995    1.000
    N2411    N        0.40295    0.65080    0.67623    1.000
    Si2412   Si       0.42850    0.61692    0.67550    1.000
    Si2413   Si       0.37182    0.62227    0.68851    1.000
    N2414    N        0.33144    0.62807    0.83219    1.000
    Si2415   Si       0.31352    0.63098    0.79167    1.000
    N2416    N        0.26884    0.62616    0.79386    1.000
    Si2417   Si       0.24916    0.64020    0.83056    1.000
    Si2418   Si       0.24351    0.63560    0.75252    1.000
    N2419    N        0.45650    0.61327    0.87873    1.000
    N2420    N        0.46226    0.60353    0.80463    1.000
    N2421    N        0.40482    0.61757    0.82763    1.000
    Si2422   Si       0.43099    0.63710    0.80063    1.000
    Si2423   Si       0.48229    0.60910    0.84206    1.000
    Si2424   Si       0.41134    0.61230    0.86880    1.000
    Si2425   Si       0.35515    0.63439    0.91189    1.000
    N2426    N        0.34123    0.63285    0.95318    1.000
    N2427    N        0.43419    0.63605    0.95571    1.000
    N2428    N        0.39398    0.64143    0.89591    1.000
    Si2429   Si       0.45780    0.61505    0.92296    1.000
    N2430    N        0.32593    0.67566    0.09233    1.000
    Si2431   Si       0.28804    0.69687    0.09331    1.000
    N2432    N        0.25940    0.67057    0.11361    1.000
    Si2433   Si       0.35929    0.68193    0.11969    1.000
    N2434    N        0.45841    0.68525    0.05786    1.000
    Si2435   Si       0.42771    0.70469    0.03514    1.000
    N2436    N        0.41728    0.67602    0.00315    1.000
    N2437    N        0.48797    0.67418    0.21709    1.000
    Si2438   Si       0.24213    0.68201    0.21744    1.000
    N2439    N        0.28623    0.67228    0.22171    1.000
    Si2440   Si       0.24650    0.70248    0.13933    1.000
    N2441    N        0.35856    0.67420    0.16599    1.000
    Si2442   Si       0.29361    0.71527    0.22349    1.000
    N2443    N        0.44950    0.69526    0.12652    1.000
    N2444    N        0.40223    0.67309    0.22459    1.000
    Si2445   Si       0.48955    0.66234    0.03688    1.000
    N2446    N        0.39209    0.65573    0.11090    1.000
    Si2447   Si       0.43371    0.65559    0.12738    1.000
    Si2448   Si       0.25438    0.70218    0.33925    1.000
    N2449    N        0.32527    0.67865    0.31400    1.000
    Si2450   Si       0.35632    0.70375    0.33298    1.000
    N2451    N        0.26000    0.65991    0.34084    1.000
    Si2452   Si       0.42428    0.68118    0.32103    1.000
    N2453    N        0.45228    0.69063    0.35236    1.000
    N2454    N        0.39505    0.71305    0.31393    1.000
    N2455    N        0.44156    0.66834    0.28391    1.000
    N2456    N        0.36998    0.69880    0.37359    1.000
    Si2457   Si       0.24296    0.68168    0.42981    1.000
    N2458    N        0.24729    0.67403    0.47266    1.000
    N2459    N        0.32316    0.67209    0.46608    1.000
    N2460    N        0.29077    0.67295    0.40627    1.000
    Si2461   Si       0.34956    0.70536    0.47437    1.000
    Si2462   Si       0.28711    0.67314    0.49139    1.000
    N2463    N        0.37733    0.70336    0.43980    1.000
    Si2464   Si       0.45507    0.67862    0.39456    1.000
    Si2465   Si       0.41811    0.70419    0.45388    1.000
    Si2466   Si       0.38662    0.65910    0.38118    1.000
    N2467    N        0.43710    0.66735    0.47160    1.000
    N2468    N        0.26570    0.71228    0.29849    1.000
    Si2469   Si       0.30875    0.71467    0.29522    1.000
    Si2470   Si       0.32263    0.69474    0.55406    1.000
    N2471    N        0.29534    0.69518    0.58847    1.000
    Si2472   Si       0.28320    0.66127    0.61124    1.000
    N2473    N        0.30148    0.70467    0.51664    1.000
    N2474    N        0.35019    0.66173    0.55875    1.000
    Si2475   Si       0.44562    0.66473    0.51393    1.000
    N2476    N        0.37678    0.69422    0.50696    1.000
    N2477    N        0.44920    0.70657    0.53177    1.000
    Si2478   Si       0.47166    0.70930    0.57066    1.000
    Si2479   Si       0.29480    0.70817    0.66671    1.000
    N2480    N        0.31852    0.69900    0.70498    1.000
    N2481    N        0.27450    0.67197    0.65326    1.000
    Si2482   Si       0.31769    0.66398    0.73039    1.000
    N2483    N        0.45262    0.69118    0.71265    1.000
    N2484    N        0.38607    0.69943    0.72394    1.000
    Si2485   Si       0.41394    0.69152    0.68887    1.000
    N2486    N        0.32729    0.66686    0.77292    1.000
    N2487    N        0.28020    0.66771    0.84401    1.000
    Si2488   Si       0.34751    0.70175    0.78928    1.000
    N2489    N        0.33008    0.70535    0.82926    1.000
    Si2490   Si       0.32311    0.66388    0.85312    1.000
    Si2491   Si       0.28560    0.70929    0.83110    1.000
    N2492    N        0.44448    0.67664    0.82242    1.000
    N2493    N        0.38987    0.69706    0.79227    1.000
    Si2494   Si       0.41337    0.69387    0.75684    1.000
    Si2495   Si       0.47886    0.68116    0.85030    1.000
    N2496    N        0.38909    0.70582    0.86123    1.000
    Si2497   Si       0.41390    0.70772    0.82617    1.000
    N2498    N        0.43214    0.65170    0.76057    1.000
    Si2499   Si       0.31968    0.70153    0.92050    1.000
    N2500    N        0.33432    0.69908    0.96137    1.000
    Si2501   Si       0.26025    0.69136    0.96696    1.000
    N2502    N        0.27650    0.69801    0.92702    1.000
    N2503    N        0.32906    0.66637    0.89457    1.000
    Si2504   Si       0.32495    0.66104    0.98343    1.000
    N2505    N        0.28137    0.66104    0.98731    1.000
    Si2506   Si       0.48287    0.70235    0.91638    1.000
    N2507    N        0.40665    0.70152    0.93064    1.000
    N2508    N        0.45503    0.68630    0.88621    1.000
    Si2509   Si       0.42972    0.68000    0.96333    1.000
    N2510    N        0.46966    0.69591    0.95771    1.000
    Si2511   Si       0.41060    0.68199    0.89265    1.000
    N2512    N        0.32411    0.75319    0.07794    1.000
    Si2513   Si       0.35204    0.73927    0.04572    1.000
    Si2514   Si       0.28409    0.73525    0.02410    1.000
    Si2515   Si       0.27883    0.75695    0.08389    1.000
    Si2516   Si       0.34938    0.76234    0.11237    1.000
    N2517    N        0.32440    0.72164    0.01650    1.000
    N2518    N        0.26885    0.71875    0.06144    1.000
    N2519    N        0.45223    0.73421    0.00986    1.000
    N2520    N        0.44916    0.75107    0.07964    1.000
    N2521    N        0.38979    0.72012    0.05124    1.000
    N2522    N        0.28333    0.72869    0.12359    1.000
    Si2523   Si       0.29637    0.75351    0.15713    1.000
    N2524    N        0.31334    0.72716    0.18621    1.000
    N2525    N        0.25034    0.72430    0.22808    1.000
    N2526    N        0.35972    0.72469    0.12982    1.000
    N2527    N        0.25723    0.76671    0.17535    1.000
    Si2528   Si       0.35172    0.71757    0.17207    1.000
    N2529    N        0.44013    0.76421    0.14315    1.000
    N2530    N        0.37764    0.73403    0.20004    1.000
    N2531    N        0.44240    0.72215    0.19980    1.000
    Si2532   Si       0.45039    0.72568    0.15663    1.000
    Si2533   Si       0.46704    0.71164    0.08934    1.000
    Si2534   Si       0.40753    0.71486    0.22344    1.000
    Si2535   Si       0.48460    0.71646    0.20913    1.000
    N2536    N        0.33224    0.73879    0.32168    1.000
    N2537    N        0.31467    0.73503    0.25599    1.000
    N2538    N        0.27634    0.72768    0.36665    1.000
    Si2539   Si       0.25990    0.76942    0.36103    1.000
    N2540    N        0.44690    0.71445    0.42080    1.000
    Si2541   Si       0.43878    0.75145    0.40016    1.000
    Si2542   Si       0.47742    0.72497    0.34243    1.000
    N2543    N        0.45978    0.73151    0.30146    1.000
    Si2544   Si       0.41769    0.74429    0.29393    1.000
    N2545    N        0.40446    0.74646    0.25336    1.000
    N2546    N        0.46124    0.75748    0.36381    1.000
    N2547    N        0.33994    0.74680    0.48538    1.000
    N2548    N        0.32819    0.74305    0.41373    1.000
    Si2549   Si       0.24858    0.76148    0.43699    1.000
    N2550    N        0.26323    0.72240    0.43197    1.000
    Si2551   Si       0.32570    0.77001    0.45002    1.000
    Si2552   Si       0.29464    0.71701    0.40396    1.000
    N2553    N        0.48230    0.76151    0.48473    1.000
    N2554    N        0.39754    0.75753    0.39014    1.000
    Si2555   Si       0.36871    0.72796    0.40536    1.000
    N2556    N        0.41952    0.73879    0.47972    1.000
    N2557    N        0.32906    0.74008    0.55904    1.000
    Si2558   Si       0.31167    0.73551    0.60205    1.000
    Si2559   Si       0.30928    0.74739    0.51845    1.000
    N2560    N        0.28096    0.76453    0.60599    1.000
    N2561    N        0.36296    0.76496    0.60777    1.000
    Si2562   Si       0.36007    0.76824    0.56208    1.000
    N2563    N        0.44372    0.73291    0.59338    1.000
    N2564    N        0.39780    0.74918    0.54478    1.000
    Si2565   Si       0.40873    0.71987    0.51742    1.000
    Si2566   Si       0.47395    0.74959    0.52630    1.000
    Si2567   Si       0.42857    0.76732    0.57004    1.000
    N2568    N        0.26648    0.73938    0.67626    1.000
    Si2569   Si       0.24879    0.75356    0.71283    1.000
    Si2570   Si       0.35089    0.72372    0.71840    1.000
    N2571    N        0.28459    0.76583    0.73304    1.000
    N2572    N        0.32909    0.71865    0.64005    1.000
    N2573    N        0.36142    0.75276    0.68854    1.000
    Si2574   Si       0.47343    0.72099    0.73763    1.000
    Si2575   Si       0.36690    0.74051    0.64640    1.000
    Si2576   Si       0.44428    0.73620    0.63545    1.000
    N2577    N        0.48538    0.72272    0.64435    1.000
    N2578    N        0.40867    0.71992    0.65712    1.000
    N2579    N        0.33753    0.73347    0.76015    1.000
    Si2580   Si       0.30048    0.75239    0.77141    1.000
    N2581    N        0.27333    0.72642    0.79507    1.000
    Si2582   Si       0.35186    0.72868    0.86143    1.000
    N2583    N        0.28111    0.73511    0.86606    1.000
    N2584    N        0.36373    0.76728    0.84872    1.000
    N2585    N        0.42546    0.75083    0.82819    1.000
    N2586    N        0.43949    0.72920    0.76309    1.000
    Si2587   Si       0.44640    0.76114    0.79137    1.000
    N2588    N        0.26098    0.73295    0.98714    1.000
    Si2589   Si       0.34178    0.73752    0.97880    1.000
    N2590    N        0.34632    0.73326    0.90592    1.000
    N2591    N        0.25456    0.76131    0.91877    1.000
    Si2592   Si       0.24240    0.76375    0.95946    1.000
    Si2593   Si       0.25456    0.72038    0.89776    1.000
    N2594    N        0.31868    0.77026    0.96303    1.000
    Si2595   Si       0.48702    0.71906    0.99080    1.000
    Si2596   Si       0.38512    0.74031    0.92539    1.000
    N2597    N        0.48678    0.74401    0.90824    1.000
    N2598    N        0.38079    0.75293    0.96592    1.000
    N2599    N        0.40863    0.77142    0.90406    1.000
    Si2600   Si       0.40669    0.77525    0.85919    1.000
    Si2601   Si       0.31898    0.79578    0.04364    1.000
    N2602    N        0.26243    0.79013    0.10712    1.000
    Si2603   Si       0.26593    0.81276    0.01631    1.000
    N2604    N        0.32634    0.82413    0.07526    1.000
    N2605    N        0.28017    0.77703    0.03839    1.000
    N2606    N        0.30900    0.82541    0.01171    1.000
    N2607    N        0.35413    0.77687    0.02448    1.000
    Si2608   Si       0.48840    0.78883    0.23540    1.000
    Si2609   Si       0.36812    0.82389    0.09009    1.000
    Si2610   Si       0.42813    0.82883    0.04340    1.000
    Si2611   Si       0.47549    0.78511    0.06863    1.000
    N2612    N        0.44400    0.81248    0.08368    1.000
    N2613    N        0.41857    0.79450    0.01477    1.000
    N2614    N        0.38338    0.78486    0.09909    1.000
    N2615    N        0.47938    0.79706    0.02758    1.000
    Si2616   Si       0.42439    0.77783    0.10547    1.000
    Si2617   Si       0.45282    0.77531    0.99848    1.000
    N2618    N        0.27642    0.79647    0.24815    1.000
    N2619    N        0.32317    0.78333    0.14065    1.000
    N2620    N        0.34362    0.79058    0.22165    1.000
    Si2621   Si       0.31735    0.82839    0.14053    1.000
    Si2622   Si       0.33632    0.83223    0.20653    1.000
    Si2623   Si       0.42412    0.82259    0.23424    1.000
    N2624    N        0.41449    0.79157    0.20452    1.000
    Si2625   Si       0.44125    0.79916    0.17152    1.000
    N2626    N        0.47922    0.80366    0.19443    1.000
    Si2627   Si       0.38205    0.77201    0.22421    1.000
    N2628    N        0.33049    0.79754    0.29003    1.000
    N2629    N        0.29707    0.78963    0.35294    1.000
    N2630    N        0.35736    0.80142    0.35430    1.000
    Si2631   Si       0.33145    0.77955    0.32871    1.000
    Si2632   Si       0.31487    0.78008    0.25449    1.000
    Si2633   Si       0.31960    0.82309    0.36685    1.000
    N2634    N        0.39014    0.81821    0.25979    1.000
    N2635    N        0.45365    0.80242    0.25823    1.000
    Si2636   Si       0.43782    0.81155    0.29845    1.000
    Si2637   Si       0.46822    0.80130    0.35735    1.000
    Si2638   Si       0.39738    0.78697    0.35714    1.000
    N2639    N        0.47847    0.80729    0.31607    1.000
    N2640    N        0.41074    0.78125    0.31635    1.000
    N2641    N        0.42738    0.81740    0.36642    1.000
    Si2642   Si       0.28313    0.82589    0.43898    1.000
    N2643    N        0.28365    0.78415    0.45579    1.000
    N2644    N        0.35565    0.79983    0.45346    1.000
    N2645    N        0.23967    0.78066    0.39968    1.000
    N2646    N        0.31596    0.83124    0.40982    1.000
    N2647    N        0.45594    0.78186    0.42568    1.000
    Si2648   Si       0.44416    0.77383    0.46634    1.000
    Si2649   Si       0.37838    0.78668    0.48910    1.000
    N2650    N        0.41656    0.80555    0.48296    1.000
    Si2651   Si       0.35214    0.83223    0.27415    1.000
    Si2652   Si       0.26419    0.78387    0.56862    1.000
    N2653    N        0.27274    0.82704    0.57710    1.000
    N2654    N        0.28154    0.77980    0.52741    1.000
    N2655    N        0.34322    0.82590    0.58302    1.000
    N2656    N        0.35940    0.79690    0.52696    1.000
    Si2657   Si       0.37531    0.80840    0.61137    1.000
    N2658    N        0.40955    0.80463    0.58652    1.000
    N2659    N        0.46161    0.78633    0.54644    1.000
    Si2660   Si       0.47711    0.82689    0.54648    1.000
    N2661    N        0.34164    0.80718    0.72120    1.000
    Si2662   Si       0.29969    0.80042    0.71057    1.000
    N2663    N        0.29255    0.80336    0.66692    1.000
    Si2664   Si       0.26567    0.77179    0.64593    1.000
    N2665    N        0.41592    0.80347    0.70628    1.000
    N2666    N        0.38322    0.80715    0.65356    1.000
    Si2667   Si       0.42769    0.80992    0.66499    1.000
    Si2668   Si       0.42518    0.82578    0.74246    1.000
    Si2669   Si       0.37397    0.79429    0.69455    1.000
    N2670    N        0.45255    0.77696    0.65412    1.000
    N2671    N        0.27294    0.83134    0.72559    1.000
    Si2672   Si       0.26973    0.80610    0.49445    1.000
    Si2673   Si       0.26714    0.80337    0.81248    1.000
    Si2674   Si       0.33958    0.79294    0.82160    1.000
    N2675    N        0.25414    0.79754    0.85311    1.000
    N2676    N        0.30353    0.78235    0.80308    1.000
    Si2677   Si       0.42150    0.80274    0.93255    1.000
    N2678    N        0.36679    0.80882    0.79269    1.000
    N2679    N        0.40863    0.81691    0.84676    1.000
    N2680    N        0.43142    0.80069    0.77798    1.000
    Si2681   Si       0.40720    0.82551    0.80503    1.000
    N2682    N        0.45293    0.78581    0.95618    1.000
    N2683    N        0.30214    0.80462    0.90335    1.000
    Si2684   Si       0.30107    0.80623    0.94742    1.000
    N2685    N        0.26034    0.80366    0.97032    1.000
    Si2686   Si       0.27651    0.77789    0.88356    1.000
    Si2687   Si       0.38109    0.78950    0.99199    1.000
    N2688    N        0.38809    0.81913    0.95767    1.000
    Si2689   Si       0.35327    0.82807    0.75614    1.000
    Si2690   Si       0.30040    0.86137    0.07524    1.000
    Si2691   Si       0.25446    0.87559    0.03177    1.000
    N2692    N        0.26587    0.83855    0.05510    1.000
    N2693    N        0.33974    0.88678    0.06525    1.000
    N2694    N        0.29101    0.85758    0.11959    1.000
    N2695    N        0.36010    0.87980    0.99782    1.000
    Si2696   Si       0.25238    0.87890    0.12308    1.000
    N2697    N        0.28387    0.88471    0.00068    1.000
    Si2698   Si       0.37464    0.87594    0.03898    1.000
    N2699    N        0.38953    0.84010    0.05731    1.000
    N2700    N        0.45257    0.85817    0.02417    1.000
    Si2701   Si       0.45334    0.84213    0.11432    1.000
    N2702    N        0.44606    0.88513    0.10775    1.000
    Si2703   Si       0.49051    0.84019    0.02377    1.000
    Si2704   Si       0.26892    0.86258    0.19161    1.000
    N2705    N        0.35997    0.84367    0.12994    1.000
    N2706    N        0.30138    0.83556    0.18128    1.000
    N2707    N        0.24359    0.85677    0.22664    1.000
    N2708    N        0.32755    0.85147    0.24389    1.000
    N2709    N        0.42411    0.83151    0.14557    1.000
    N2710    N        0.48045    0.87060    0.16760    1.000
    Si2711   Si       0.39947    0.88496    0.21017    1.000
    Si2712   Si       0.38941    0.85486    0.15751    1.000
    Si2713   Si       0.47700    0.87657    0.21604    1.000
    N2714    N        0.43664    0.86008    0.21892    1.000
    N2715    N        0.37410    0.85076    0.19658    1.000
    N2716    N        0.30630    0.85667    0.34274    1.000
    Si2717   Si       0.26935    0.87059    0.35861    1.000
    N2718    N        0.35687    0.86453    0.30397    1.000
    Si2719   Si       0.32331    0.88715    0.31715    1.000
    N2720    N        0.24158    0.83854    0.36303    1.000
    N2721    N        0.48844    0.88224    0.33033    1.000
    N2722    N        0.49033    0.86995    0.25922    1.000
    N2723    N        0.40694    0.88491    0.35553    1.000
    Si2724   Si       0.46446    0.87637    0.29278    1.000
    N2725    N        0.42940    0.85438    0.30168    1.000
    Si2726   Si       0.39548    0.88023    0.31398    1.000
    Si2727   Si       0.35166    0.83897    0.43585    1.000
    N2728    N        0.24563    0.84055    0.42574    1.000
    N2729    N        0.28826    0.84224    0.47788    1.000
    Si2730   Si       0.27491    0.88417    0.48554    1.000
    N2731    N        0.35881    0.87173    0.46648    1.000
    Si2732   Si       0.24112    0.88587    0.42073    1.000
    Si2733   Si       0.41760    0.85520    0.38440    1.000
    Si2734   Si       0.48303    0.87324    0.42791    1.000
    N2735    N        0.45312    0.87625    0.39788    1.000
    Si2736   Si       0.39496    0.88352    0.44416    1.000
    N2737    N        0.42590    0.88223    0.47467    1.000
    N2738    N        0.39014    0.85058    0.41592    1.000
    N2739    N        0.33152    0.87302    0.53416    1.000
    Si2740   Si       0.25182    0.86658    0.56435    1.000
    N2741    N        0.25579    0.87587    0.52242    1.000
    Si2742   Si       0.30643    0.84675    0.59525    1.000
    Si2743   Si       0.35567    0.83810    0.54098    1.000
    N2744    N        0.28764    0.88617    0.58185    1.000
    N2745    N        0.39772    0.84763    0.53113    1.000
    N2746    N        0.45809    0.85795    0.57246    1.000
    N2747    N        0.39509    0.86736    0.60526    1.000
    Si2748   Si       0.41400    0.84797    0.57187    1.000
    N2749    N        0.46994    0.84094    0.50645    1.000
    Si2750   Si       0.42848    0.84639    0.49933    1.000
    N2751    N        0.31071    0.87208    0.69475    1.000
    N2752    N        0.25644    0.86268    0.64424    1.000
    Si2753   Si       0.29363    0.84788    0.66329    1.000
    Si2754   Si       0.29618    0.86734    0.73487    1.000
    N2755    N        0.31959    0.86500    0.63284    1.000
    Si2756   Si       0.40890    0.87703    0.64502    1.000
    N2757    N        0.46271    0.84610    0.74268    1.000
    Si2758   Si       0.48194    0.86670    0.65192    1.000
    N2759    N        0.44342    0.84943    0.65325    1.000
    N2760    N        0.38172    0.87818    0.67668    1.000
    Si2761   Si       0.30878    0.86041    0.80700    1.000
    N2762    N        0.32294    0.85703    0.76652    1.000
    N2763    N        0.26761    0.84512    0.79934    1.000
    N2764    N        0.32498    0.83245    0.83753    1.000
    Si2765   Si       0.24161    0.87130    0.77795    1.000
    N2766    N        0.23991    0.88296    0.86423    1.000
    N2767    N        0.42960    0.86290    0.80192    1.000
    Si2768   Si       0.46745    0.86540    0.78243    1.000
    N2769    N        0.40590    0.88484    0.86662    1.000
    N2770    N        0.48308    0.85513    0.86677    1.000
    N2771    N        0.39044    0.85099    0.74666    1.000
    Si2772   Si       0.32583    0.83484    0.88112    1.000
    Si2773   Si       0.29566    0.87823    0.93157    1.000
    N2774    N        0.32232    0.84799    0.95095    1.000
    N2775    N        0.25498    0.86116    0.93305    1.000
    N2776    N        0.30869    0.87133    0.89054    1.000
    Si2777   Si       0.32103    0.86037    0.99213    1.000
    N2778    N        0.43515    0.83740    0.91006    1.000
    N2779    N        0.36456    0.83759    0.89664    1.000
    Si2780   Si       0.36523    0.84990    0.93864    1.000
    Si2781   Si       0.46899    0.86827    0.90474    1.000
    Si2782   Si       0.40367    0.84354    0.87918    1.000
    Si2783   Si       0.35066    0.92563    0.08133    1.000
    Si2784   Si       0.27580    0.93500    0.08531    1.000
    N2785    N        0.31558    0.94461    0.09759    1.000
    N2786    N        0.27798    0.89732    0.06658    1.000
    N2787    N        0.24849    0.92192    0.11737    1.000
    N2788    N        0.38079    0.92355    0.11030    1.000
    N2789    N        0.40962    0.90380    0.04821    1.000
    N2790    N        0.47498    0.92419    0.01864    1.000
    Si2791   Si       0.42028    0.91736    0.08903    1.000
    Si2792   Si       0.44148    0.89867    0.01747    1.000
    N2793    N        0.34657    0.92095    0.22638    1.000
    Si2794   Si       0.31258    0.93554    0.19716    1.000
    N2795    N        0.28978    0.89970    0.20786    1.000
    N2796    N        0.33818    0.94399    0.16259    1.000
    Si2797   Si       0.31718    0.89338    0.24234    1.000
    N2798    N        0.40039    0.89806    0.16946    1.000
    Si2799   Si       0.43880    0.94043    0.19622    1.000
    N2800    N        0.47701    0.92136    0.21229    1.000
    Si2801   Si       0.38261    0.93648    0.15323    1.000
    Si2802   Si       0.47111    0.90267    0.13917    1.000
    N2803    N        0.45193    0.93969    0.15114    1.000
    N2804    N        0.41091    0.92095    0.22949    1.000
    N2805    N        0.32315    0.92073    0.34235    1.000
    Si2806   Si       0.26189    0.91260    0.29416    1.000
    N2807    N        0.25359    0.90056    0.33384    1.000
    N2808    N        0.30100    0.90005    0.28235    1.000
    Si2809   Si       0.36013    0.94551    0.32858    1.000
    N2810    N        0.38384    0.92037    0.30106    1.000
    N2811    N        0.45032    0.91710    0.28974    1.000
    Si2812   Si       0.41381    0.93073    0.27248    1.000
    Si2813   Si       0.47507    0.93945    0.31633    1.000
    N2814    N        0.46024    0.93297    0.36073    1.000
    Si2815   Si       0.45459    0.91425    0.48560    1.000
    Si2816   Si       0.29999    0.92822    0.37912    1.000
    N2817    N        0.30800    0.91246    0.47533    1.000
    N2818    N        0.32607    0.94212    0.41171    1.000
    Si2819   Si       0.30537    0.94756    0.44827    1.000
    Si2820   Si       0.34271    0.89683    0.49784    1.000
    N2821    N        0.48292    0.90716    0.45624    1.000
    Si2822   Si       0.48046    0.89534    0.36979    1.000
    Si2823   Si       0.41622    0.92274    0.37632    1.000
    N2824    N        0.39561    0.91853    0.41862    1.000
    N2825    N        0.26344    0.95325    0.37728    1.000
    N2826    N        0.27772    0.89320    0.39583    1.000
    N2827    N        0.34397    0.91533    0.59090    1.000
    Si2828   Si       0.31784    0.90861    0.55748    1.000
    N2829    N        0.36121    0.93224    0.51877    1.000
    N2830    N        0.29649    0.94326    0.53954    1.000
    N2831    N        0.47303    0.90918    0.52474    1.000
    N2832    N        0.41410    0.90939    0.55973    1.000
    Si2833   Si       0.38832    0.91053    0.59603    1.000
    Si2834   Si       0.45862    0.90139    0.56437    1.000
    N2835    N        0.48093    0.93317    0.58254    1.000
    Si2836   Si       0.40385    0.93976    0.52786    1.000
    N2837    N        0.49174    0.90843    0.64798    1.000
    Si2838   Si       0.31727    0.90886    0.62585    1.000
    Si2839   Si       0.25092    0.90098    0.62198    1.000
    N2840    N        0.28064    0.93237    0.62325    1.000
    N2841    N        0.35129    0.91446    0.72861    1.000
    N2842    N        0.33734    0.92878    0.66009    1.000
    Si2843   Si       0.34628    0.89622    0.68933    1.000
    N2844    N        0.41053    0.92058    0.63218    1.000
    N2845    N        0.45086    0.93615    0.69336    1.000
    Si2846   Si       0.26886    0.94001    0.74489    1.000
    N2847    N        0.30059    0.89899    0.82559    1.000
    Si2848   Si       0.30316    0.93830    0.80923    1.000
    Si2849   Si       0.28337    0.89539    0.86603    1.000
    N2850    N        0.26578    0.89681    0.75080    1.000
    N2851    N        0.30649    0.94405    0.76746    1.000
    N2852    N        0.43193    0.92933    0.81435    1.000
    Si2853   Si       0.45097    0.93158    0.77551    1.000
    N2854    N        0.48281    0.90565    0.77214    1.000
    Si2855   Si       0.40832    0.89589    0.82443    1.000
    N2856    N        0.37183    0.89573    0.80114    1.000
    N2857    N        0.41708    0.91332    0.74945    1.000
    Si2858   Si       0.38015    0.89086    0.75797    1.000
    Si2859   Si       0.28617    0.92552    0.98625    1.000
    N2860    N        0.28041    0.93555    0.88343    1.000
    N2861    N        0.30194    0.91835    0.94775    1.000
    N2862    N        0.24274    0.93492    0.98219    1.000
    N2863    N        0.44729    0.90399    0.91314    1.000
    N2864    N        0.38024    0.89160    0.93332    1.000
    N2865    N        0.42301    0.91020    0.97994    1.000
    Si2866   Si       0.44223    0.93120    0.94838    1.000
    Si2867   Si       0.40501    0.91643    0.90015    1.000
    Si2868   Si       0.38002    0.90943    0.97210    1.000
    Si2869   Si       0.27892    0.98729    0.02759    1.000
    Si2870   Si       0.34533    0.96654    0.01831    1.000
    N2871    N        0.26236    0.96981    0.06434    1.000
    N2872    N        0.30453    0.95801    0.01084    1.000
    N2873    N        0.36293    0.99371    0.11080    1.000
    N2874    N        0.36599    0.95648    0.05517    1.000
    N2875    N        0.42820    0.96109    0.08928    1.000
    Si2876   Si       0.39036    0.98384    0.07707    1.000
    N2877    N        0.48208    0.99396    0.01891    1.000
    Si2878   Si       0.32928    0.97009    0.12900    1.000
    N2879    N        0.29002    0.96937    0.20666    1.000
    Si2880   Si       0.24380    0.97151    0.20053    1.000
    Si2881   Si       0.31071    0.00127    0.23087    1.000
    N2882    N        0.35236    0.98617    0.23382    1.000
    N2883    N        0.24222    0.98036    0.15748    1.000
    N2884    N        0.46070    0.98166    0.20129    1.000
    Si2885   Si       0.42530    0.00056    0.18481    1.000
    Si2886   Si       0.45027    0.97573    0.12454    1.000
    N2887    N        0.39946    0.96430    0.18493    1.000
    Si2888   Si       0.37724    0.95210    0.22315    1.000
    N2889    N        0.34780    0.98229    0.30897    1.000
    Si2890   Si       0.26149    0.99767    0.29678    1.000
    N2891    N        0.25163    0.95518    0.29343    1.000
    N2892    N        0.29490    0.00666    0.27172    1.000
    Si2893   Si       0.37229    0.99685    0.27545    1.000
    N2894    N        0.46396    0.98167    0.30850    1.000
    N2895    N        0.40849    0.97282    0.26434    1.000
    Si2896   Si       0.46767    0.97361    0.38169    1.000
    Si2897   Si       0.24043    0.97985    0.47910    1.000
    N2898    N        0.26529    0.96407    0.44666    1.000
    Si2899   Si       0.24663    0.97876    0.40917    1.000
    N2900    N        0.32862    0.97469    0.47266    1.000
    Si2901   Si       0.35588    0.00568    0.45905    1.000
    N2902    N        0.44214    0.00010    0.44915    1.000
    N2903    N        0.43504    0.00296    0.37716    1.000
    Si2904   Si       0.36924    0.95212    0.40619    1.000
    Si2905   Si       0.42656    0.99299    0.48834    1.000
    N2906    N        0.37919    0.98939    0.42462    1.000
    N2907    N        0.28347    0.00964    0.33203    1.000
    N2908    N        0.38653    0.00544    0.49157    1.000
    N2909    N        0.38490    0.95185    0.36524    1.000
    N2910    N        0.42876    0.94828    0.49244    1.000
    N2911    N        0.27954    0.99383    0.58064    1.000
    Si2912   Si       0.26072    0.96975    0.54963    1.000
    Si2913   Si       0.32872    0.96335    0.51681    1.000
    N2914    N        0.25890    0.99439    0.51388    1.000
    N2915    N        0.33685    0.99950    0.53883    1.000
    N2916    N        0.40253    0.97711    0.54900    1.000
    Si2917   Si       0.27126    0.97704    0.62045    1.000
    Si2918   Si       0.29047    0.99608    0.69493    1.000
    N2919    N        0.26645    0.96052    0.70726    1.000
    Si2920   Si       0.35452    0.96530    0.67458    1.000
    N2921    N        0.32933    0.97857    0.70630    1.000
    N2922    N        0.29283    0.00068    0.65135    1.000
    N2923    N        0.35919    0.99709    0.64606    1.000
    Si2924   Si       0.33918    0.95512    0.74042    1.000
    Si2925   Si       0.46529    0.00585    0.66281    1.000
    Si2926   Si       0.42217    0.94853    0.66182    1.000
    N2927    N        0.39268    0.95659    0.69397    1.000
    N2928    N        0.42793    0.98888    0.64811    1.000
    Si2929   Si       0.42255    0.94649    0.72365    1.000
    N2930    N        0.33260    0.96712    0.82659    1.000
    Si2931   Si       0.25875    0.96379    0.85852    1.000
    N2932    N        0.26805    0.96303    0.81737    1.000
    Si2933   Si       0.33033    0.99763    0.79443    1.000
    Si2934   Si       0.24823    0.99668    0.78546    1.000
    Si2935   Si       0.35692    0.97123    0.86290    1.000
    N2936    N        0.36266    0.98177    0.76658    1.000
    N2937    N        0.41544    0.99555    0.99037    1.000
    N2938    N        0.46278    0.97207    0.85502    1.000
    Si2939   Si       0.42432    0.96279    0.83859    1.000
    N2940    N        0.40879    0.99899    0.81938    1.000
    N2941    N        0.44563    0.96862    0.75363    1.000
    N2942    N        0.39514    0.94848    0.86795    1.000
    Si2943   Si       0.24313    0.97353    0.96166    1.000
    N2944    N        0.27716    0.98070    0.93541    1.000
    N2945    N        0.33809    0.97044    0.90413    1.000
    Si2946   Si       0.30184    0.95053    0.91935    1.000
    N2947    N        0.24944    0.99978    0.99519    1.000
    N2948    N        0.36743    0.95053    0.98436    1.000
    N2949    N        0.26028    0.00615    0.86991    1.000
    N2950    N        0.47031    0.96385    0.95642    1.000
    N2951    N        0.40683    0.95081    0.93230    1.000
    Si2952   Si       0.45916    0.99664    0.98251    1.000
    Si2953   Si       0.38841    0.97891    0.95840    1.000
    Si2954   Si       0.55773    0.05082    0.07277    1.000
    N2955    N        0.52469    0.04892    0.04019    1.000
    N2956    N        0.58860    0.02107    0.05821    1.000
    N2957    N        0.54097    0.04743    0.11258    1.000
    Si2958   Si       0.49973    0.02900    0.11623    1.000
    N2959    N        0.64534    0.03078    0.18021    1.000
    Si2960   Si       0.72042    0.04013    0.04445    1.000
    N2961    N        0.70023    0.05264    0.00810    1.000
    Si2962   Si       0.65993    0.05194    0.07407    1.000
    N2963    N        0.63178    0.01719    0.00353    1.000
    N2964    N        0.70196    0.06439    0.07710    1.000
    N2965    N        0.64051    0.05087    0.11332    1.000
    Si2966   Si       0.65748    0.05530    0.00057    1.000
    N2967    N        0.70224    0.05474    0.19971    1.000
    N2968    N        0.57314    0.04312    0.18150    1.000
    Si2969   Si       0.57017    0.05939    0.22311    1.000
    Si2970   Si       0.60434    0.01359    0.18008    1.000
    N2971    N        0.53020    0.05771    0.24019    1.000
    Si2972   Si       0.55964    0.06670    0.14876    1.000
    Si2973   Si       0.64744    0.01574    0.13771    1.000
    Si2974   Si       0.71522    0.01801    0.22008    1.000
    Si2975   Si       0.50985    0.02340    0.25753    1.000
    N2976    N        0.57993    0.05075    0.31855    1.000
    N2977    N        0.52246    0.02008    0.29887    1.000
    N2978    N        0.59831    0.04326    0.25470    1.000
    Si2979   Si       0.56026    0.01164    0.31646    1.000
    Si2980   Si       0.61044    0.06202    0.29058    1.000
    N2981    N        0.68214    0.05294    0.47618    1.000
    Si2982   Si       0.65822    0.01574    0.32866    1.000
    N2983    N        0.65097    0.04805    0.30100    1.000
    Si2984   Si       0.67573    0.05801    0.26545    1.000
    N2985    N        0.68703    0.01829    0.25158    1.000
    N2986    N        0.65867    0.03372    0.37110    1.000
    N2987    N        0.51115    0.01872    0.47318    1.000
    N2988    N        0.54549    0.01880    0.41186    1.000
    Si2989   Si       0.51970    0.05245    0.40337    1.000
    Si2990   Si       0.58586    0.02932    0.41132    1.000
    N2991    N        0.59232    0.04177    0.45371    1.000
    Si2992   Si       0.54856    0.04582    0.46623    1.000
    N2993    N        0.59485    0.06152    0.38309    1.000
    Si2994   Si       0.60651    0.00824    0.48354    1.000
    Si2995   Si       0.70089    0.01848    0.45919    1.000
    N2996    N        0.73715    0.02671    0.43845    1.000
    Si2997   Si       0.55760    0.03772    0.53040    1.000
    N2998    N        0.51645    0.03589    0.54526    1.000
    N2999    N        0.58541    0.03049    0.56323    1.000
    Si3000   Si       0.58221    0.02578    0.60687    1.000
    Si3001   Si       0.49134    0.01667    0.51570    1.000
    Si3002   Si       0.62349    0.01023    0.55271    1.000
    N3003    N        0.63218    0.02752    0.51307    1.000
    N3004    N        0.65576    0.01800    0.58109    1.000
    Si3005   Si       0.66222    0.05380    0.60691    1.000
    N3006    N        0.70559    0.06018    0.60305    1.000
    Si3007   Si       0.65532    0.06326    0.50813    1.000
    N3008    N        0.54319    0.01830    0.62721    1.000
    N3009    N        0.59771    0.05782    0.62753    1.000
    Si3010   Si       0.51713    0.05404    0.63467    1.000
    N3011    N        0.59030    0.04859    0.69589    1.000
    N3012    N        0.52931    0.04407    0.71023    1.000
    Si3013   Si       0.56208    0.01450    0.70428    1.000
    N3014    N        0.65707    0.04949    0.71052    1.000
    Si3015   Si       0.62680    0.05898    0.67520    1.000
    Si3016   Si       0.72992    0.03940    0.63242    1.000
    Si3017   Si       0.68267    0.02856    0.68192    1.000
    N3018    N        0.65780    0.04329    0.64894    1.000
    N3019    N        0.72155    0.04842    0.67289    1.000
    N3020    N        0.71541    0.03889    0.74261    1.000
    Si3021   Si       0.73284    0.06554    0.71089    1.000
    N3022    N        0.56470    0.04838    0.84055    1.000
    N3023    N        0.49973    0.03152    0.83770    1.000
    Si3024   Si       0.53813    0.01442    0.85084    1.000
    Si3025   Si       0.52640    0.03291    0.75163    1.000
    N3026    N        0.60576    0.06073    0.79247    1.000
    Si3027   Si       0.59795    0.03652    0.86594    1.000
    N3028    N        0.53354    0.06142    0.78380    1.000
    Si3029   Si       0.49146    0.05729    0.79869    1.000
    Si3030   Si       0.62106    0.02149    0.79948    1.000
    N3031    N        0.65856    0.01886    0.77620    1.000
    N3032    N        0.62929    0.01708    0.84197    1.000
    Si3033   Si       0.67387    0.05028    0.75346    1.000
    Si3034   Si       0.56249    0.01454    0.92898    1.000
    N3035    N        0.53787    0.05170    0.93915    1.000
    N3036    N        0.60092    0.02711    0.94039    1.000
    Si3037   Si       0.49541    0.04318    0.93098    1.000
    N3038    N        0.49452    0.00886    0.90273    1.000
    N3039    N        0.56682    0.01164    0.88650    1.000
    N3040    N        0.65832    0.06035    0.95357    1.000
    Si3041   Si       0.62041    0.06627    0.93206    1.000
    Si3042   Si       0.70971    0.04672    0.87576    1.000
    Si3043   Si       0.67874    0.02758    0.92927    1.000
    N3044    N        0.68124    0.01674    0.88815    1.000
    N3045    N        0.71287    0.05743    0.91939    1.000
    N3046    N        0.57220    0.09002    0.05770    1.000
    Si3047   Si       0.53483    0.08827    0.02918    1.000
    Si3048   Si       0.61394    0.09863    0.04857    1.000
    N3049    N        0.63102    0.11219    0.08762    1.000
    Si3050   Si       0.73038    0.07791    0.10758    1.000
    N3051    N        0.64253    0.07010    0.03911    1.000
    N3052    N        0.59041    0.09734    0.14062    1.000
    N3053    N        0.53225    0.09100    0.17405    1.000
    N3054    N        0.58469    0.10007    0.21855    1.000
    Si3055   Si       0.55082    0.12082    0.19748    1.000
    Si3056   Si       0.50208    0.09201    0.24252    1.000
    Si3057   Si       0.66286    0.06675    0.19618    1.000
    Si3058   Si       0.63052    0.09005    0.12843    1.000
    Si3059   Si       0.68689    0.12324    0.14949    1.000
    Si3060   Si       0.73415    0.07986    0.18262    1.000
    N3061    N        0.65569    0.09684    0.16325    1.000
    N3062    N        0.65099    0.08111    0.23554    1.000
    Si3063   Si       0.61927    0.10958    0.24448    1.000
    N3064    N        0.71742    0.09321    0.14575    1.000
    Si3065   Si       0.48957    0.08690    0.17356    1.000
    Si3066   Si       0.56839    0.07689    0.35119    1.000
    N3067    N        0.57628    0.11935    0.34345    1.000
    N3068    N        0.48904    0.10408    0.28157    1.000
    N3069    N        0.52828    0.07617    0.36942    1.000
    Si3070   Si       0.61540    0.12431    0.32677    1.000
    N3071    N        0.61687    0.10522    0.28698    1.000
    N3072    N        0.71080    0.08300    0.27212    1.000
    N3073    N        0.64134    0.10311    0.35893    1.000
    Si3074   Si       0.73077    0.11613    0.25119    1.000
    Si3075   Si       0.50519    0.11244    0.37493    1.000
    N3076    N        0.58942    0.11622    0.43725    1.000
    Si3077   Si       0.54614    0.11821    0.43494    1.000
    N3078    N        0.53256    0.07608    0.43727    1.000
    Si3079   Si       0.60994    0.08137    0.45141    1.000
    N3080    N        0.71760    0.09032    0.42663    1.000
    Si3081   Si       0.68110    0.08603    0.45011    1.000
    N3082    N        0.62526    0.09176    0.49146    1.000
    N3083    N        0.64655    0.07740    0.42773    1.000
    Si3084   Si       0.63593    0.07059    0.38572    1.000
    N3085    N        0.52081    0.08147    0.59953    1.000
    N3086    N        0.50477    0.10441    0.53367    1.000
    Si3087   Si       0.54170    0.11133    0.51126    1.000
    Si3088   Si       0.49991    0.07118    0.56328    1.000
    N3089    N        0.55357    0.07062    0.50148    1.000
    N3090    N        0.57896    0.12085    0.60657    1.000
    N3091    N        0.64412    0.09179    0.59408    1.000
    Si3092   Si       0.66467    0.11432    0.56508    1.000
    N3093    N        0.67917    0.07858    0.54226    1.000
    Si3094   Si       0.71715    0.06982    0.56069    1.000
    Si3095   Si       0.54094    0.11160    0.62570    1.000
    Si3096   Si       0.61247    0.09817    0.62255    1.000
    Si3097   Si       0.55426    0.07642    0.69658    1.000
    N3098    N        0.53774    0.08585    0.65881    1.000
    N3099    N        0.55582    0.11002    0.72309    1.000
    N3100    N        0.62448    0.10077    0.66551    1.000
    N3101    N        0.71606    0.10443    0.71554    1.000
    N3102    N        0.56603    0.11620    0.81298    1.000
    Si3103   Si       0.56667    0.07459    0.80649    1.000
    Si3104   Si       0.63600    0.09443    0.79060    1.000
    N3105    N        0.67870    0.08857    0.77777    1.000
    N3106    N        0.64636    0.10707    0.83214    1.000
    Si3107   Si       0.68681    0.10326    0.81978    1.000
    Si3108   Si       0.70753    0.11719    0.75974    1.000
    N3109    N        0.62315    0.11248    0.75502    1.000
    N3110    N        0.70302    0.08010    0.85151    1.000
    N3111    N        0.59797    0.09963    0.94826    1.000
    Si3112   Si       0.55583    0.08908    0.94920    1.000
    Si3113   Si       0.50054    0.11578    0.90376    1.000
    N3114    N        0.61709    0.06998    0.88881    1.000
    N3115    N        0.55361    0.09787    0.99209    1.000
    Si3116   Si       0.68635    0.09159    0.93316    1.000
    Si3117   Si       0.63179    0.10926    0.87692    1.000
    Si3118   Si       0.72870    0.08361    0.99489    1.000
    N3119    N        0.66013    0.11698    0.91079    1.000
    N3120    N        0.70849    0.10978    0.96584    1.000
    Si3121   Si       0.50110    0.16438    0.03421    1.000
    N3122    N        0.57989    0.16848    0.05678    1.000
    Si3123   Si       0.55664    0.13227    0.06854    1.000
    N3124    N        0.54468    0.13289    0.10873    1.000
    N3125    N        0.52066    0.12742    0.04591    1.000
    Si3126   Si       0.61648    0.16864    0.03402    1.000
    N3127    N        0.61436    0.12941    0.01667    1.000
    N3128    N        0.72023    0.16138    0.05210    1.000
    Si3129   Si       0.64340    0.15165    0.09773    1.000
    Si3130   Si       0.72505    0.14904    0.09435    1.000
    N3131    N        0.68526    0.14410    0.11301    1.000
    N3132    N        0.65054    0.17339    0.06050    1.000
    N3133    N        0.49406    0.17790    0.12325    1.000
    Si3134   Si       0.57934    0.13978    0.13421    1.000
    N3135    N        0.55148    0.15303    0.16700    1.000
    Si3136   Si       0.51539    0.14282    0.13984    1.000
    N3137    N        0.51946    0.12942    0.22615    1.000
    Si3138   Si       0.52623    0.16957    0.24052    1.000
    N3139    N        0.56526    0.17937    0.22525    1.000
    N3140    N        0.61126    0.16524    0.12502    1.000
    Si3141   Si       0.67342    0.15851    0.22066    1.000
    N3142    N        0.63178    0.14938    0.23208    1.000
    N3143    N        0.69541    0.14951    0.18321    1.000
    Si3144   Si       0.60339    0.17910    0.24521    1.000
    N3145    N        0.52913    0.16731    0.28451    1.000
    Si3146   Si       0.54724    0.14954    0.35473    1.000
    N3147    N        0.50894    0.13786    0.33947    1.000
    N3148    N        0.59412    0.17663    0.28840    1.000
    Si3149   Si       0.49723    0.14161    0.29901    1.000
    N3150    N        0.68816    0.12317    0.47023    1.000
    Si3151   Si       0.73454    0.14408    0.34160    1.000
    N3152    N        0.63104    0.16355    0.34298    1.000
    N3153    N        0.73274    0.17505    0.31317    1.000
    Si3154   Si       0.69997    0.17743    0.28184    1.000
    N3155    N        0.70149    0.14788    0.25231    1.000
    N3156    N        0.69618    0.14395    0.36270    1.000
    Si3157   Si       0.49885    0.16152    0.47446    1.000
    N3158    N        0.53239    0.13212    0.47419    1.000
    N3159    N        0.53405    0.13837    0.39829    1.000
    Si3160   Si       0.60670    0.15591    0.43773    1.000
    Si3161   Si       0.53294    0.17995    0.41394    1.000
    N3162    N        0.57392    0.18372    0.42822    1.000
    N3163    N        0.49507    0.17529    0.43352    1.000
    N3164    N        0.73508    0.16407    0.42523    1.000
    Si3165   Si       0.65541    0.14519    0.37262    1.000
    N3166    N        0.61705    0.16163    0.48014    1.000
    Si3167   Si       0.72712    0.12804    0.44721    1.000
    N3168    N        0.64165    0.15788    0.41087    1.000
    Si3169   Si       0.57582    0.14856    0.57163    1.000
    N3170    N        0.53486    0.16536    0.57102    1.000
    Si3171   Si       0.51208    0.17502    0.60674    1.000
    N3172    N        0.57670    0.12895    0.53200    1.000
    Si3173   Si       0.70688    0.14465    0.70239    1.000
    Si3174   Si       0.61333    0.12877    0.51025    1.000
    N3175    N        0.71910    0.15260    0.52410    1.000
    N3176    N        0.68878    0.14309    0.59093    1.000
    Si3177   Si       0.72547    0.14791    0.56806    1.000
    N3178    N        0.64934    0.13661    0.53224    1.000
    Si3179   Si       0.68238    0.15016    0.50381    1.000
    Si3180   Si       0.52263    0.13753    0.72782    1.000
    N3181    N        0.53740    0.17284    0.70250    1.000
    N3182    N        0.52283    0.14742    0.63933    1.000
    Si3183   Si       0.50377    0.16404    0.67519    1.000
    Si3184   Si       0.59371    0.13281    0.73293    1.000
    N3185    N        0.60792    0.15582    0.69999    1.000
    Si3186   Si       0.67788    0.16154    0.62802    1.000
    N3187    N        0.68902    0.15495    0.74040    1.000
    N3188    N        0.63344    0.15830    0.63523    1.000
    N3189    N        0.68114    0.14596    0.66824    1.000
    Si3190   Si       0.63728    0.14013    0.67365    1.000
    Si3191   Si       0.55051    0.14929    0.79080    1.000
    N3192    N        0.57912    0.16401    0.76196    1.000
    Si3193   Si       0.50708    0.16878    0.84574    1.000
    N3194    N        0.54744    0.17417    0.82834    1.000
    N3195    N        0.51398    0.14035    0.77074    1.000
    Si3196   Si       0.56051    0.13484    0.85241    1.000
    N3197    N        0.59996    0.14111    0.87121    1.000
    N3198    N        0.70233    0.14225    0.80756    1.000
    Si3199   Si       0.69032    0.17556    0.83716    1.000
    N3200    N        0.64747    0.18257    0.83848    1.000
    N3201    N        0.52074    0.13206    0.86647    1.000
    N3202    N        0.57148    0.16368    0.97215    1.000
    Si3203   Si       0.53006    0.15931    0.95966    1.000
    N3204    N        0.49833    0.15506    0.98907    1.000
    Si3205   Si       0.58826    0.12534    0.98354    1.000
    Si3206   Si       0.61744    0.17973    0.87020    1.000
    Si3207   Si       0.73129    0.14569    0.95595    1.000
    N3208    N        0.69984    0.15832    0.87571    1.000
    N3209    N        0.69721    0.17125    0.94521    1.000
    Si3210   Si       0.67307    0.15925    0.91062    1.000
    N3211    N        0.53135    0.12123    0.93363    1.000
    N3212    N        0.52205    0.20170    0.04249    1.000
    Si3213   Si       0.55697    0.20445    0.06855    1.000
    N3214    N        0.55683    0.20855    0.11149    1.000
    N3215    N        0.61737    0.20174    0.00529    1.000
    N3216    N        0.61832    0.24017    0.10677    1.000
    N3217    N        0.69752    0.22084    0.08118    1.000
    N3218    N        0.69055    0.20748    0.01054    1.000
    Si3219   Si       0.65281    0.22932    0.00565    1.000
    Si3220   Si       0.73315    0.22121    0.10467    1.000
    Si3221   Si       0.68894    0.19056    0.05142    1.000
    Si3222   Si       0.59812    0.20830    0.12708    1.000
    N3223    N        0.59927    0.21116    0.17153    1.000
    N3224    N        0.52883    0.21969    0.17470    1.000
    Si3225   Si       0.51795    0.21405    0.13127    1.000
    Si3226   Si       0.56290    0.19262    0.18357    1.000
    N3227    N        0.50150    0.20598    0.23609    1.000
    Si3228   Si       0.50975    0.23946    0.20814    1.000
    N3229    N        0.72093    0.23978    0.14092    1.000
    N3230    N        0.61628    0.22029    0.23938    1.000
    Si3231   Si       0.71404    0.21483    0.21632    1.000
    Si3232   Si       0.62627    0.23285    0.19704    1.000
    N3233    N        0.67129    0.20334    0.21519    1.000
    N3234    N        0.57148    0.24312    0.05139    1.000
    Si3235   Si       0.53661    0.24136    0.02305    1.000
    N3236    N        0.55578    0.23570    0.28576    1.000
    Si3237   Si       0.55799    0.19395    0.30255    1.000
    N3238    N        0.55874    0.19014    0.34660    1.000
    N3239    N        0.61587    0.23506    0.31647    1.000
    Si3240   Si       0.66102    0.22389    0.25484    1.000
    N3241    N        0.71365    0.21327    0.26031    1.000
    Si3242   Si       0.62538    0.19281    0.31281    1.000
    N3243    N        0.66050    0.19157    0.28569    1.000
    Si3244   Si       0.55860    0.22576    0.37218    1.000
    Si3245   Si       0.58517    0.22585    0.43568    1.000
    N3246    N        0.52380    0.21854    0.39575    1.000
    Si3247   Si       0.57924    0.24151    0.49484    1.000
    N3248    N        0.61224    0.22660    0.46803    1.000
    Si3249   Si       0.71454    0.21380    0.48342    1.000
    Si3250   Si       0.63624    0.20035    0.49311    1.000
    N3251    N        0.71105    0.23396    0.44473    1.000
    N3252    N        0.73195    0.21754    0.37781    1.000
    N3253    N        0.67862    0.19167    0.48732    1.000
    Si3254   Si       0.73901    0.20768    0.41884    1.000
    N3255    N        0.72810    0.24304    0.32267    1.000
    N3256    N        0.57149    0.21620    0.52966    1.000
    Si3257   Si       0.53565    0.19538    0.54003    1.000
    N3258    N        0.50339    0.22187    0.55180    1.000
    Si3259   Si       0.60405    0.21967    0.55859    1.000
    N3260    N        0.51706    0.18956    0.50153    1.000
    N3261    N        0.52003    0.21557    0.61874    1.000
    Si3262   Si       0.49266    0.22631    0.50525    1.000
    Si3263   Si       0.60917    0.19109    0.62430    1.000
    Si3264   Si       0.73541    0.21012    0.61528    1.000
    N3265    N        0.63784    0.21840    0.53241    1.000
    N3266    N        0.63154    0.22846    0.61878    1.000
    Si3267   Si       0.67583    0.23873    0.61780    1.000
    N3268    N        0.69471    0.20153    0.62724    1.000
    Si3269   Si       0.49193    0.23894    0.69093    1.000
    Si3270   Si       0.54963    0.23110    0.64512    1.000
    N3271    N        0.58861    0.21970    0.72220    1.000
    N3272    N        0.57945    0.20239    0.65560    1.000
    Si3273   Si       0.57744    0.18706    0.69514    1.000
    N3274    N        0.53412    0.24256    0.68355    1.000
    N3275    N        0.66680    0.21372    0.70727    1.000
    Si3276   Si       0.49847    0.24232    0.59070    1.000
    N3277    N        0.72679    0.24209    0.68761    1.000
    N3278    N        0.59817    0.18383    0.58331    1.000
    Si3279   Si       0.67724    0.19595    0.74549    1.000
    Si3280   Si       0.56296    0.21478    0.83273    1.000
    N3281    N        0.58733    0.22327    0.79448    1.000
    N3282    N        0.59829    0.21756    0.85835    1.000
    Si3283   Si       0.60217    0.20125    0.75784    1.000
    Si3284   Si       0.69746    0.20811    0.96698    1.000
    Si3285   Si       0.63027    0.21319    0.81247    1.000
    N3286    N        0.70755    0.21508    0.82655    1.000
    N3287    N        0.64309    0.20398    0.77195    1.000
    N3288    N        0.71714    0.21638    0.75565    1.000
    Si3289   Si       0.73667    0.21974    0.79479    1.000
    N3290    N        0.65858    0.23378    0.96354    1.000
    N3291    N        0.49534    0.19953    0.87411    1.000
    N3292    N        0.59428    0.22715    0.93817    1.000
    N3293    N        0.54693    0.22667    0.98331    1.000
    Si3294   Si       0.58612    0.20580    0.97598    1.000
    Si3295   Si       0.51756    0.23198    0.95090    1.000
    N3296    N        0.50988    0.19147    0.93708    1.000
    Si3297   Si       0.50768    0.24116    0.87736    1.000
    N3298    N        0.72165    0.23788    0.94939    1.000
    Si3299   Si       0.63722    0.22664    0.92715    1.000
    N3300    N        0.64074    0.18799    0.90702    1.000
    N3301    N        0.51407    0.27969    0.01929    1.000
    Si3302   Si       0.60881    0.26035    0.06704    1.000
    Si3303   Si       0.50811    0.28670    0.11497    1.000
    Si3304   Si       0.69683    0.26454    0.16689    1.000
    N3305    N        0.60403    0.30323    0.07586    1.000
    N3306    N        0.71430    0.25639    0.20539    1.000
    N3307    N        0.71429    0.28110    0.05618    1.000
    Si3308   Si       0.67978    0.26065    0.06999    1.000
    N3309    N        0.66665    0.28689    0.10335    1.000
    N3310    N        0.64605    0.25126    0.04456    1.000
    Si3311   Si       0.72655    0.30099    0.02071    1.000
    Si3312   Si       0.63869    0.26899    0.13213    1.000
    N3313    N        0.53477    0.26568    0.23252    1.000
    N3314    N        0.59808    0.26888    0.20670    1.000
    N3315    N        0.49138    0.24534    0.12018    1.000
    Si3316   Si       0.73865    0.28338    0.22836    1.000
    N3317    N        0.65395    0.25421    0.16876    1.000
    Si3318   Si       0.58234    0.25260    0.24637    1.000
    N3319    N        0.60135    0.28084    0.27391    1.000
    N3320    N        0.52225    0.29117    0.29792    1.000
    Si3321   Si       0.51757    0.28361    0.34015    1.000
    N3322    N        0.55507    0.26250    0.34961    1.000
    Si3323   Si       0.57993    0.26248    0.31262    1.000
    Si3324   Si       0.51934    0.25604    0.27259    1.000
    N3325    N        0.60611    0.29516    0.33569    1.000
    Si3326   Si       0.66537    0.29279    0.37508    1.000
    N3327    N        0.66849    0.26138    0.27420    1.000
    Si3328   Si       0.63749    0.27188    0.30468    1.000
    N3329    N        0.67015    0.28373    0.33260    1.000
    Si3330   Si       0.70340    0.27704    0.30322    1.000
    Si3331   Si       0.72823    0.25886    0.36377    1.000
    Si3332   Si       0.70613    0.27399    0.43272    1.000
    Si3333   Si       0.59240    0.28266    0.37647    1.000
    N3334    N        0.49452    0.27512    0.42466    1.000
    Si3335   Si       0.52330    0.27538    0.45733    1.000
    N3336    N        0.50332    0.26706    0.49435    1.000
    N3337    N        0.55288    0.24433    0.45879    1.000
    N3338    N        0.59265    0.24246    0.39565    1.000
    N3339    N        0.69704    0.26835    0.39091    1.000
    N3340    N        0.62779    0.30034    0.39666    1.000
    N3341    N        0.51173    0.28168    0.60241    1.000
    N3342    N        0.58967    0.27904    0.50887    1.000
    N3343    N        0.60337    0.26152    0.56977    1.000
    Si3344   Si       0.60879    0.26647    0.61282    1.000
    N3345    N        0.67288    0.26741    0.65018    1.000
    Si3346   Si       0.49665    0.30134    0.52064    1.000
    Si3347   Si       0.61505    0.28977    0.54062    1.000
    Si3348   Si       0.67208    0.24810    0.53650    1.000
    Si3349   Si       0.71600    0.28140    0.58758    1.000
    N3350    N        0.65367    0.28432    0.52139    1.000
    N3351    N        0.68374    0.25290    0.57759    1.000
    Si3352   Si       0.73785    0.27819    0.51420    1.000
    N3353    N        0.73041    0.25546    0.61792    1.000
    N3354    N        0.70950    0.24512    0.51151    1.000
    N3355    N        0.57155    0.26661    0.63320    1.000
    N3356    N        0.58900    0.29205    0.69954    1.000
    Si3357   Si       0.56791    0.25526    0.70828    1.000
    Si3358   Si       0.54472    0.29844    0.62597    1.000
    Si3359   Si       0.62649    0.29455    0.72299    1.000
    N3360    N        0.66842    0.28320    0.71429    1.000
    Si3361   Si       0.68296    0.25076    0.68978    1.000
    Si3362   Si       0.52764    0.28384    0.82156    1.000
    Si3363   Si       0.57934    0.26161    0.77670    1.000
    N3364    N        0.49956    0.28332    0.79114    1.000
    N3365    N        0.57019    0.29015    0.80797    1.000
    Si3366   Si       0.50497    0.27609    0.74863    1.000
    N3367    N        0.54656    0.26726    0.74706    1.000
    Si3368   Si       0.61714    0.25768    0.86214    1.000
    N3369    N        0.61659    0.27725    0.76200    1.000
    Si3370   Si       0.64830    0.27762    0.79123    1.000
    N3371    N        0.69172    0.27588    0.78922    1.000
    N3372    N        0.69455    0.28661    0.85771    1.000
    Si3373   Si       0.68861    0.25418    0.82945    1.000
    N3374    N        0.64552    0.25094    0.82711    1.000
    Si3375   Si       0.72178    0.29944    0.77033    1.000
    N3376    N        0.58373    0.28129    0.87960    1.000
    Si3377   Si       0.57585    0.25889    0.91657    1.000
    N3378    N        0.57083    0.28981    0.94812    1.000
    N3379    N        0.53490    0.24606    0.91262    1.000
    N3380    N        0.68950    0.29655    0.99397    1.000
    N3381    N        0.64427    0.26001    0.90077    1.000
    Si3382   Si       0.65907    0.30224    0.91246    1.000
    Si3383   Si       0.71413    0.27933    0.96259    1.000
    N3384    N        0.70116    0.29727    0.92492    1.000
    Si3385   Si       0.72640    0.29451    0.88709    1.000
    Si3386   Si       0.48864    0.29076    0.98682    1.000
    N3387    N        0.53249    0.24520    0.84109    1.000
    Si3388   Si       0.59757    0.32862    0.04159    1.000
    N3389    N        0.55351    0.33804    0.04500    1.000
    Si3390   Si       0.51526    0.31646    0.04585    1.000
    Si3391   Si       0.58901    0.31745    0.11277    1.000
    N3392    N        0.54875    0.30315    0.11827    1.000
    N3393    N        0.61746    0.31251    0.00739    1.000
    N3394    N        0.72676    0.34349    0.02528    1.000
    N3395    N        0.72062    0.32963    0.09717    1.000
    Si3396   Si       0.72826    0.35969    0.06711    1.000
    Si3397   Si       0.68440    0.32297    0.12170    1.000
    N3398    N        0.58888    0.36102    0.12214    1.000
    Si3399   Si       0.60243    0.30705    0.18710    1.000
    N3400    N        0.55917    0.31798    0.18437    1.000
    Si3401   Si       0.53338    0.32958    0.15254    1.000
    N3402    N        0.49554    0.30761    0.15226    1.000
    Si3403   Si       0.53593    0.30894    0.22373    1.000
    N3404    N        0.49499    0.32429    0.22307    1.000
    N3405    N        0.74123    0.35548    0.18186    1.000
    N3406    N        0.62408    0.33228    0.21636    1.000
    N3407    N        0.69550    0.30645    0.15999    1.000
    Si3408   Si       0.69963    0.33577    0.19316    1.000
    N3409    N        0.66427    0.36134    0.12513    1.000
    N3410    N        0.71568    0.32040    0.22949    1.000
    N3411    N        0.48940    0.34002    0.01994    1.000
    N3412    N        0.48829    0.30561    0.08074    1.000
    N3413    N        0.61394    0.30348    0.14467    1.000
    Si3414   Si       0.53598    0.33067    0.29039    1.000
    N3415    N        0.50663    0.31927    0.35935    1.000
    N3416    N        0.56090    0.34226    0.32371    1.000
    N3417    N        0.56118    0.32811    0.25419    1.000
    Si3418   Si       0.60565    0.32260    0.25688    1.000
    Si3419   Si       0.60528    0.34101    0.33135    1.000
    N3420    N        0.50491    0.35813    0.28611    1.000
    Si3421   Si       0.54192    0.34127    0.36340    1.000
    N3422    N        0.62249    0.34381    0.29038    1.000
    Si3423   Si       0.70513    0.34491    0.34152    1.000
    N3424    N        0.72624    0.31308    0.31984    1.000
    Si3425   Si       0.53829    0.34901    0.44485    1.000
    N3426    N        0.56774    0.31577    0.38906    1.000
    N3427    N        0.54550    0.31077    0.46274    1.000
    Si3428   Si       0.60242    0.34053    0.40441    1.000
    Si3429   Si       0.67488    0.31009    0.49335    1.000
    N3430    N        0.59093    0.35241    0.49257    1.000
    Si3431   Si       0.67457    0.33620    0.42373    1.000
    N3432    N        0.68626    0.33144    0.38195    1.000
    Si3433   Si       0.73396    0.33251    0.46198    1.000
    N3434    N        0.70532    0.35947    0.44304    1.000
    N3435    N        0.63504    0.35286    0.43282    1.000
    N3436    N        0.67611    0.30051    0.44975    1.000
    Si3437   Si       0.56802    0.31335    0.49906    1.000
    N3438    N        0.71695    0.31425    0.49965    1.000
    N3439    N        0.56167    0.32786    0.59828    1.000
    Si3440   Si       0.53966    0.34346    0.56504    1.000
    N3441    N        0.53744    0.31916    0.52864    1.000
    Si3442   Si       0.60237    0.33672    0.59543    1.000
    N3443    N        0.49742    0.34644    0.57251    1.000
    Si3444   Si       0.48646    0.31216    0.67946    1.000
    N3445    N        0.61223    0.33169    0.55480    1.000
    N3446    N        0.69561    0.31584    0.60528    1.000
    N3447    N        0.65552    0.34669    0.50257    1.000
    Si3448   Si       0.69945    0.35781    0.59550    1.000
    Si3449   Si       0.68413    0.32692    0.70831    1.000
    N3450    N        0.62543    0.30709    0.61757    1.000
    N3451    N        0.73498    0.36174    0.57287    1.000
    N3452    N        0.59247    0.36001    0.67433    1.000
    N3453    N        0.52939    0.31448    0.66258    1.000
    N3454    N        0.49339    0.31179    0.72378    1.000
    Si3455   Si       0.56545    0.32912    0.68951    1.000
    Si3456   Si       0.50845    0.35001    0.73481    1.000
    N3457    N        0.54819    0.35789    0.71980    1.000
    N3458    N        0.72353    0.33053    0.68708    1.000
    N3459    N        0.63604    0.33548    0.72730    1.000
    Si3460   Si       0.66511    0.30764    0.63573    1.000
    N3461    N        0.66130    0.33330    0.66940    1.000
    N3462    N        0.57971    0.34533    0.84352    1.000
    Si3463   Si       0.59464    0.32500    0.80691    1.000
    N3464    N        0.52085    0.31210    0.85521    1.000
    N3465    N        0.63785    0.31850    0.94800    1.000
    N3466    N        0.69256    0.34968    0.82914    1.000
    Si3467   Si       0.66750    0.31912    0.84555    1.000
    N3468    N        0.63661    0.31396    0.81466    1.000
    N3469    N        0.70327    0.33377    0.74960    1.000
    Si3470   Si       0.73388    0.34198    0.83621    1.000
    Si3471   Si       0.56039    0.31948    0.87355    1.000
    N3472    N        0.50363    0.32133    0.95956    1.000
    N3473    N        0.56989    0.34791    0.97558    1.000
    Si3474   Si       0.54419    0.32492    0.94767    1.000
    N3475    N        0.55294    0.34155    0.90957    1.000
    Si3476   Si       0.59985    0.31631    0.96682    1.000
    Si3477   Si       0.65645    0.32446    0.98774    1.000
    N3478    N        0.64994    0.33348    0.88258    1.000
    N3479    N        0.66957    0.36367    0.99837    1.000
    N3480    N        0.54839    0.39987    0.07797    1.000
    Si3481   Si       0.56553    0.38128    0.04327    1.000
    N3482    N        0.56093    0.41131    0.01007    1.000
    N3483    N        0.60759    0.37156    0.03827    1.000
    Si3484   Si       0.55846    0.39047    0.11911    1.000
    N3485    N        0.69705    0.38927    0.07187    1.000
    Si3486   Si       0.67373    0.39941    0.10523    1.000
    Si3487   Si       0.63726    0.39141    0.01033    1.000
    N3488    N        0.63160    0.41228    0.10855    1.000
    N3489    N        0.72249    0.41329    0.01042    1.000
    N3490    N        0.52731    0.37321    0.14415    1.000
    Si3491   Si       0.49886    0.40221    0.15803    1.000
    N3492    N        0.62111    0.39288    0.17796    1.000
    Si3493   Si       0.71829    0.39307    0.20155    1.000
    N3494    N        0.68048    0.37209    0.20257    1.000
    Si3495   Si       0.63878    0.37520    0.21475    1.000
    Si3496   Si       0.62595    0.37865    0.13616    1.000
    Si3497   Si       0.50841    0.40102    0.27714    1.000
    N3498    N        0.54979    0.40195    0.26219    1.000
    Si3499   Si       0.58842    0.40496    0.27844    1.000
    Si3500   Si       0.49281    0.40227    0.35186    1.000
    N3501    N        0.52822    0.38363    0.37146    1.000
    N3502    N        0.61236    0.40396    0.31464    1.000
    Si3503   Si       0.61522    0.40656    0.35694    1.000
    Si3504   Si       0.64561    0.38473    0.29147    1.000
    N3505    N        0.62284    0.39607    0.25216    1.000
    N3506    N        0.67644    0.36942    0.32014    1.000
    N3507    N        0.73169    0.37476    0.35988    1.000
    N3508    N        0.68051    0.41906    0.42003    1.000
    N3509    N        0.61195    0.36399    0.36691    1.000
    N3510    N        0.52934    0.37912    0.47898    1.000
    Si3511   Si       0.55558    0.40322    0.39910    1.000
    N3512    N        0.56977    0.37044    0.42309    1.000
    Si3513   Si       0.54050    0.42010    0.46738    1.000
    N3514    N        0.72757    0.41427    0.48094    1.000
    Si3515   Si       0.62678    0.36497    0.47476    1.000
    Si3516   Si       0.71190    0.40100    0.44161    1.000
    N3517    N        0.63672    0.40735    0.47689    1.000
    Si3518   Si       0.58525    0.40502    0.57227    1.000
    N3519    N        0.55552    0.38134    0.55032    1.000
    Si3520   Si       0.56268    0.38154    0.50820    1.000
    N3521    N        0.60063    0.37911    0.60463    1.000
    N3522    N        0.66634    0.37210    0.57042    1.000
    N3523    N        0.62036    0.40448    0.54260    1.000
    Si3524   Si       0.65683    0.41291    0.56506    1.000
    Si3525   Si       0.63902    0.36243    0.53916    1.000
    Si3526   Si       0.57413    0.39068    0.70305    1.000
    Si3527   Si       0.59877    0.39488    0.64420    1.000
    N3528    N        0.67994    0.37674    0.70853    1.000
    Si3529   Si       0.70766    0.36960    0.67364    1.000
    N3530    N        0.69968    0.38004    0.63298    1.000
    Si3531   Si       0.67493    0.41652    0.64016    1.000
    N3532    N        0.63931    0.40030    0.65857    1.000
    Si3533   Si       0.63676    0.36476    0.69151    1.000
    N3534    N        0.61526    0.39490    0.72543    1.000
    Si3535   Si       0.59069    0.38641    0.83896    1.000
    Si3536   Si       0.55956    0.38392    0.77003    1.000
    N3537    N        0.56041    0.40487    0.81178    1.000
    Si3538   Si       0.52069    0.39360    0.82626    1.000
    N3539    N        0.51818    0.36601    0.77276    1.000
    N3540    N        0.52678    0.39628    0.86976    1.000
    N3541    N        0.63405    0.38245    0.83921    1.000
    N3542    N        0.66524    0.38450    0.77521    1.000
    Si3543   Si       0.67098    0.38451    0.81689    1.000
    Si3544   Si       0.63024    0.36800    0.75596    1.000
    N3545    N        0.69246    0.41280    0.84340    1.000
    Si3546   Si       0.69891    0.37644    0.74858    1.000
    Si3547   Si       0.73485    0.41345    0.83367    1.000
    N3548    N        0.73810    0.39742    0.75245    1.000
    Si3549   Si       0.55491    0.38328    0.90059    1.000
    N3550    N        0.59326    0.39516    0.88237    1.000
    Si3551   Si       0.57452    0.39140    0.97317    1.000
    N3552    N        0.54896    0.40271    0.94109    1.000
    Si3553   Si       0.50885    0.41587    0.95176    1.000
    N3554    N        0.49592    0.39406    0.98574    1.000
    N3555    N        0.61647    0.40010    0.97238    1.000
    Si3556   Si       0.63328    0.37348    0.88207    1.000
    N3557    N        0.72983    0.37266    0.95448    1.000
    Si3558   Si       0.71390    0.37216    0.99419    1.000
    N3559    N        0.65517    0.40104    0.90634    1.000
    N3560    N        0.59398    0.35690    0.77796    1.000
    N3561    N        0.51314    0.45129    0.03767    1.000
    N3562    N        0.51690    0.46243    0.10171    1.000
    Si3563   Si       0.54228    0.44865    0.00625    1.000
    Si3564   Si       0.51414    0.42623    0.07492    1.000
    Si3565   Si       0.60471    0.44492    0.11815    1.000
    N3566    N        0.58836    0.47518    0.09222    1.000
    N3567    N        0.71263    0.45811    0.05793    1.000
    Si3568   Si       0.72824    0.45275    0.09828    1.000
    N3569    N        0.65640    0.42766    0.02479    1.000
    Si3570   Si       0.65165    0.46521    0.00272    1.000
    Si3571   Si       0.69461    0.42323    0.04324    1.000
    N3572    N        0.69256    0.43682    0.11689    1.000
    N3573    N        0.57696    0.44418    0.20326    1.000
    Si3574   Si       0.55036    0.45054    0.16823    1.000
    N3575    N        0.51051    0.43936    0.18032    1.000
    N3576    N        0.56993    0.42609    0.13700    1.000
    Si3577   Si       0.55718    0.44100    0.24205    1.000
    Si3578   Si       0.68527    0.46520    0.20066    1.000
    N3579    N        0.71699    0.43579    0.19464    1.000
    Si3580   Si       0.61666    0.43510    0.18844    1.000
    N3581    N        0.62857    0.45801    0.15164    1.000
    N3582    N        0.64721    0.44670    0.21667    1.000
    Si3583   Si       0.66579    0.46885    0.13157    1.000
    N3584    N        0.59342    0.44715    0.26714    1.000
    Si3585   Si       0.50174    0.46345    0.29772    1.000
    N3586    N        0.52312    0.45924    0.25716    1.000
    N3587    N        0.50376    0.42260    0.31362    1.000
    Si3588   Si       0.70352    0.44327    0.30196    1.000
    N3589    N        0.70649    0.43786    0.34599    1.000
    Si3590   Si       0.63733    0.44106    0.25942    1.000
    N3591    N        0.67034    0.42416    0.28284    1.000
    N3592    N        0.64347    0.43833    0.36878    1.000
    N3593    N        0.58534    0.42660    0.37948    1.000
    N3594    N        0.53924    0.43153    0.42604    1.000
    N3595    N        0.51211    0.44409    0.48882    1.000
    Si3596   Si       0.54545    0.47425    0.42337    1.000
    Si3597   Si       0.61080    0.46460    0.38808    1.000
    N3598    N        0.57460    0.42116    0.49556    1.000
    N3599    N        0.68286    0.45756    0.46859    1.000
    Si3600   Si       0.65147    0.43459    0.44764    1.000
    N3601    N        0.61991    0.45878    0.43272    1.000
    Si3602   Si       0.68438    0.44359    0.38288    1.000
    N3603    N        0.57208    0.44030    0.59282    1.000
    Si3604   Si       0.55577    0.47095    0.61670    1.000
    Si3605   Si       0.61488    0.43042    0.50699    1.000
    N3606    N        0.65942    0.43428    0.60383    1.000
    N3607    N        0.68408    0.42670    0.53573    1.000
    N3608    N        0.62192    0.47401    0.50269    1.000
    Si3609   Si       0.70509    0.44361    0.50371    1.000
    Si3610   Si       0.52487    0.44539    0.73495    1.000
    N3611    N        0.49397    0.42573    0.70839    1.000
    N3612    N        0.53567    0.47145    0.69978    1.000
    N3613    N        0.60281    0.46661    0.71246    1.000
    N3614    N        0.51830    0.45868    0.63769    1.000
    Si3615   Si       0.49455    0.45759    0.67668    1.000
    Si3616   Si       0.57465    0.46141    0.68128    1.000
    Si3617   Si       0.60397    0.43386    0.74150    1.000
    N3618    N        0.69221    0.44275    0.66885    1.000
    Si3619   Si       0.72818    0.44103    0.69327    1.000
    N3620    N        0.72412    0.46016    0.73369    1.000
    N3621    N        0.49150    0.42265    0.57259    1.000
    Si3622   Si       0.66743    0.47712    0.60481    1.000
    N3623    N        0.55928    0.41753    0.74176    1.000
    N3624    N        0.57372    0.42044    0.67081    1.000
    Si3625   Si       0.55267    0.44930    0.82285    1.000
    N3626    N        0.50776    0.43834    0.82829    1.000
    N3627    N        0.57060    0.45687    0.86404    1.000
    N3628    N        0.50192    0.46639    0.76462    1.000
    N3629    N        0.62734    0.45079    0.77187    1.000
    N3630    N        0.63925    0.45207    0.86422    1.000
    Si3631   Si       0.60404    0.43697    0.88416    1.000
    N3632    N        0.51778    0.45500    0.96871    1.000
    N3633    N        0.50531    0.46626    0.89301    1.000
    N3634    N        0.60627    0.44816    0.92588    1.000
    Si3635   Si       0.49614    0.42656    0.87875    1.000
    N3636    N        0.73470    0.44392    0.95018    1.000
    Si3637   Si       0.69898    0.46519    0.93917    1.000
    Si3638   Si       0.73707    0.47289    0.87961    1.000
    N3639    N        0.69975    0.45737    0.89625    1.000
    Si3640   Si       0.67294    0.42840    0.87734    1.000
    N3641    N        0.66419    0.44721    0.96028    1.000
    Si3642   Si       0.63820    0.42094    0.94176    1.000
    Si3643   Si       0.55042    0.48796    0.10851    1.000
    Si3644   Si       0.60030    0.50767    0.00251    1.000
    N3645    N        0.53943    0.53008    0.10035    1.000
    Si3646   Si       0.62104    0.50028    0.07396    1.000
    N3647    N        0.70898    0.52833    0.05499    1.000
    N3648    N        0.65742    0.49415    0.09631    1.000
    Si3649   Si       0.71545    0.49383    0.03200    1.000
    Si3650   Si       0.69493    0.51870    0.09505    1.000
    N3651    N        0.72703    0.49483    0.11155    1.000
    N3652    N        0.62619    0.48883    0.03143    1.000
    N3653    N        0.68337    0.49320    0.00363    1.000
    Si3654   Si       0.57931    0.53508    0.23871    1.000
    N3655    N        0.55177    0.49218    0.15416    1.000
    Si3656   Si       0.55048    0.52669    0.17823    1.000
    N3657    N        0.54677    0.51241    0.22017    1.000
    Si3658   Si       0.51205    0.49829    0.24236    1.000
    N3659    N        0.62119    0.52878    0.23029    1.000
    N3660    N        0.68695    0.50341    0.22368    1.000
    Si3661   Si       0.69341    0.52923    0.18352    1.000
    N3662    N        0.68561    0.48871    0.16346    1.000
    N3663    N        0.73491    0.53763    0.16613    1.000
    N3664    N        0.56384    0.48422    0.99767    1.000
    N3665    N        0.57469    0.51851    0.27877    1.000
    N3666    N        0.49914    0.51248    0.28245    1.000
    Si3667   Si       0.56390    0.49352    0.35263    1.000
    Si3668   Si       0.53844    0.52926    0.30421    1.000
    Si3669   Si       0.59930    0.48428    0.28957    1.000
    N3670    N        0.60125    0.48269    0.33225    1.000
    N3671    N        0.53116    0.48361    0.32625    1.000
    N3672    N        0.55851    0.53667    0.34325    1.000
    Si3673   Si       0.63784    0.50865    0.34269    1.000
    N3674    N        0.68084    0.50807    0.33798    1.000
    Si3675   Si       0.70315    0.52049    0.30200    1.000
    N3676    N        0.64240    0.48462    0.27781    1.000
    Si3677   Si       0.65549    0.51689    0.25172    1.000
    N3678    N        0.71840    0.48226    0.28606    1.000
    Si3679   Si       0.50394    0.52701    0.43978    1.000
    N3680    N        0.57116    0.49306    0.39512    1.000
    N3681    N        0.50556    0.48984    0.41821    1.000
    N3682    N        0.50390    0.51837    0.48149    1.000
    Si3683   Si       0.59633    0.52585    0.40999    1.000
    Si3684   Si       0.60643    0.48534    0.46290    1.000
    N3685    N        0.56059    0.48542    0.46323    1.000
    Si3686   Si       0.52811    0.48327    0.49345    1.000
    N3687    N        0.69114    0.48326    0.40090    1.000
    N3688    N        0.61596    0.52589    0.45006    1.000
    Si3689   Si       0.70640    0.51484    0.37587    1.000
    N3690    N        0.62728    0.50759    0.38374    1.000
    N3691    N        0.69097    0.52644    0.46294    1.000
    Si3692   Si       0.70114    0.48708    0.44400    1.000
    Si3693   Si       0.54865    0.51756    0.55229    1.000
    N3694    N        0.54510    0.50746    0.59569    1.000
    N3695    N        0.58994    0.51468    0.54530    1.000
    N3696    N        0.52414    0.48503    0.53646    1.000
    Si3697   Si       0.63061    0.50549    0.53216    1.000
    N3698    N        0.65837    0.49444    0.56386    1.000
    Si3699   Si       0.70339    0.50150    0.56038    1.000
    N3700    N        0.71160    0.48224    0.60053    1.000
    N3701    N        0.71775    0.48145    0.52371    1.000
    N3702    N        0.70948    0.53580    0.74050    1.000
    Si3703   Si       0.51723    0.51054    0.70125    1.000
    N3704    N        0.52581    0.52778    0.74073    1.000
    N3705    N        0.58402    0.48749    0.64653    1.000
    Si3706   Si       0.53079    0.53519    0.62623    1.000
    N3707    N        0.53171    0.53668    0.66856    1.000
    Si3708   Si       0.62408    0.50252    0.72183    1.000
    N3709    N        0.71581    0.50549    0.67553    1.000
    N3710    N        0.61786    0.53294    0.68916    1.000
    N3711    N        0.65394    0.49371    0.64322    1.000
    Si3712   Si       0.61776    0.51753    0.64693    1.000
    Si3713   Si       0.67888    0.48463    0.67663    1.000
    N3714    N        0.66535    0.49095    0.71645    1.000
    Si3715   Si       0.57427    0.51476    0.82611    1.000
    Si3716   Si       0.51928    0.50456    0.77715    1.000
    N3717    N        0.55291    0.48680    0.80026    1.000
    N3718    N        0.54822    0.51980    0.86118    1.000
    N3719    N        0.49047    0.52923    0.79527    1.000
    N3720    N        0.61722    0.50097    0.82471    1.000
    N3721    N        0.62213    0.52102    0.76123    1.000
    N3722    N        0.67698    0.51747    0.85875    1.000
    Si3723   Si       0.70165    0.51233    0.82390    1.000
    N3724    N        0.68195    0.49404    0.78845    1.000
    Si3725   Si       0.63860    0.49564    0.86107    1.000
    Si3726   Si       0.63764    0.48941    0.78826    1.000
    N3727    N        0.73720    0.49722    0.84288    1.000
    Si3728   Si       0.69797    0.49336    0.74638    1.000
    N3729    N        0.55903    0.49616    0.92743    1.000
    Si3730   Si       0.53617    0.49288    0.96528    1.000
    Si3731   Si       0.60149    0.49036    0.93359    1.000
    Si3732   Si       0.54581    0.48393    0.88675    1.000
    N3733    N        0.53447    0.53560    0.96610    1.000
    N3734    N        0.61861    0.51176    0.89740    1.000
    Si3735   Si       0.66728    0.51861    0.96963    1.000
    Si3736   Si       0.69066    0.53265    0.89756    1.000
    N3737    N        0.62538    0.50154    0.96713    1.000
    N3738    N        0.69059    0.50948    0.93579    1.000
    Si3739   Si       0.55903    0.55159    0.06784    1.000
    N3740    N        0.52911    0.54871    0.03674    1.000
    N3741    N        0.58983    0.54882    0.00714    1.000
    Si3742   Si       0.54678    0.56018    0.00028    1.000
    N3743    N        0.57276    0.59426    0.06328    1.000
    N3744    N        0.60235    0.53907    0.07361    1.000
    Si3745   Si       0.61368    0.57939    0.07134    1.000
    Si3746   Si       0.71440    0.56920    0.06678    1.000
    N3747    N        0.68931    0.56051    0.10200    1.000
    Si3748   Si       0.62318    0.57694    0.99969    1.000
    N3749    N        0.63560    0.59273    0.03774    1.000
    Si3750   Si       0.51006    0.55260    0.12194    1.000
    N3751    N        0.49639    0.57216    0.23386    1.000
    N3752    N        0.51771    0.55260    0.16601    1.000
    N3753    N        0.58586    0.54995    0.17616    1.000
    N3754    N        0.56467    0.57677    0.23540    1.000
    Si3755   Si       0.57849    0.59008    0.19542    1.000
    N3756    N        0.69751    0.56393    0.21034    1.000
    N3757    N        0.65806    0.54680    0.16179    1.000
    N3758    N        0.62238    0.58976    0.20679    1.000
    Si3759   Si       0.66336    0.57913    0.13109    1.000
    Si3760   Si       0.62678    0.54948    0.19111    1.000
    N3761    N        0.53012    0.57154    0.29542    1.000
    Si3762   Si       0.59036    0.56548    0.35198    1.000
    Si3763   Si       0.52862    0.58972    0.25471    1.000
    Si3764   Si       0.50189    0.59299    0.32267    1.000
    N3765    N        0.67339    0.54651    0.27888    1.000
    N3766    N        0.62480    0.54860    0.33039    1.000
    Si3767   Si       0.64995    0.57396    0.30481    1.000
    N3768    N        0.72986    0.54553    0.32390    1.000
    Si3769   Si       0.70554    0.56592    0.25185    1.000
    Si3770   Si       0.71110    0.58877    0.35578    1.000
    N3771    N        0.53629    0.55410    0.43345    1.000
    Si3772   Si       0.56104    0.58626    0.42082    1.000
    N3773    N        0.59146    0.56627    0.39621    1.000
    N3774    N        0.72967    0.57456    0.44321    1.000
    Si3775   Si       0.69406    0.58299    0.41925    1.000
    N3776    N        0.65870    0.58350    0.44379    1.000
    N3777    N        0.69962    0.55602    0.38536    1.000
    Si3778   Si       0.72157    0.55320    0.47952    1.000
    Si3779   Si       0.65174    0.54471    0.46703    1.000
    N3780    N        0.52942    0.55359    0.53868    1.000
    Si3781   Si       0.59217    0.58078    0.60047    1.000
    N3782    N        0.58763    0.58766    0.55892    1.000
    Si3783   Si       0.49366    0.54830    0.51401    1.000
    N3784    N        0.49233    0.55205    0.61345    1.000
    Si3785   Si       0.54700    0.59173    0.54406    1.000
    Si3786   Si       0.51431    0.59145    0.60933    1.000
    N3787    N        0.55467    0.57131    0.61844    1.000
    N3788    N        0.70740    0.58541    0.50726    1.000
    Si3789   Si       0.67571    0.56850    0.53442    1.000
    N3790    N        0.70053    0.54555    0.56210    1.000
    N3791    N        0.64658    0.54300    0.51143    1.000
    Si3792   Si       0.53992    0.57898    0.66850    1.000
    N3793    N        0.52017    0.58866    0.70778    1.000
    N3794    N        0.58175    0.57058    0.73871    1.000
    N3795    N        0.57990    0.59269    0.67840    1.000
    Si3796   Si       0.53941    0.56959    0.74065    1.000
    Si3797   Si       0.60997    0.57198    0.70530    1.000
    N3798    N        0.61940    0.55105    0.62004    1.000
    N3799    N        0.70720    0.57449    0.67837    1.000
    Si3800   Si       0.64791    0.58356    0.62830    1.000
    Si3801   Si       0.72603    0.54178    0.70088    1.000
    Si3802   Si       0.72390    0.58985    0.63767    1.000
    N3803    N        0.64845    0.58390    0.72829    1.000
    N3804    N        0.68644    0.59625    0.61580    1.000
    N3805    N        0.51091    0.57796    0.84164    1.000
    N3806    N        0.57397    0.55132    0.80592    1.000
    Si3807   Si       0.54505    0.58182    0.81432    1.000
    Si3808   Si       0.60408    0.55728    0.77413    1.000
    N3809    N        0.52446    0.58750    0.77669    1.000
    Si3810   Si       0.50982    0.54369    0.86696    1.000
    Si3811   Si       0.71597    0.56744    0.77262    1.000
    N3812    N        0.72212    0.54848    0.81029    1.000
    N3813    N        0.62468    0.59006    0.79165    1.000
    N3814    N        0.61787    0.58602    0.87137    1.000
    N3815    N        0.58732    0.56632    0.92147    1.000
    N3816    N        0.51525    0.55563    0.90861    1.000
    Si3817   Si       0.55320    0.54244    0.92734    1.000
    Si3818   Si       0.48954    0.55463    0.94357    1.000
    Si3819   Si       0.70092    0.59159    0.91314    1.000
    N3820    N        0.66681    0.56619    0.91217    1.000
    N3821    N        0.65515    0.55686    0.98242    1.000
    Si3822   Si       0.62448    0.55515    0.90091    1.000
    N3823    N        0.72550    0.56154    0.89068    1.000
    Si3824   Si       0.56162    0.63581    0.06634    1.000
    Si3825   Si       0.50091    0.63079    0.10155    1.000
    N3826    N        0.51854    0.64708    0.06704    1.000
    N3827    N        0.58003    0.64551    0.10539    1.000
    N3828    N        0.52076    0.59408    0.11279    1.000
    N3829    N        0.54107    0.60271    0.99221    1.000
    Si3830   Si       0.73429    0.63541    0.03706    1.000
    Si3831   Si       0.66573    0.62013    0.02546    1.000
    Si3832   Si       0.62352    0.64069    0.11603    1.000
    N3833    N        0.70356    0.60400    0.04205    1.000
    N3834    N        0.63099    0.59799    0.10767    1.000
    Si3835   Si       0.57043    0.65173    0.14801    1.000
    N3836    N        0.55764    0.61670    0.17204    1.000
    Si3837   Si       0.51985    0.61045    0.15358    1.000
    Si3838   Si       0.69412    0.60349    0.19391    1.000
    Si3839   Si       0.68369    0.65478    0.14353    1.000
    N3840    N        0.67991    0.61100    0.15457    1.000
    Si3841   Si       0.63636    0.61326    0.24120    1.000
    N3842    N        0.67817    0.61868    0.23147    1.000
    N3843    N        0.61342    0.64808    0.15733    1.000
    N3844    N        0.52044    0.63132    0.33093    1.000
    Si3845   Si       0.55218    0.63000    0.36182    1.000
    N3846    N        0.58496    0.60728    0.34203    1.000
    N3847    N        0.52700    0.63223    0.26058    1.000
    Si3848   Si       0.60552    0.63083    0.31124    1.000
    N3849    N        0.58012    0.65911    0.29269    1.000
    Si3850   Si       0.53701    0.65461    0.29613    1.000
    N3851    N        0.72463    0.60209    0.26918    1.000
    Si3852   Si       0.70477    0.63971    0.25870    1.000
    N3853    N        0.67715    0.59845    0.32970    1.000
    N3854    N        0.62777    0.60560    0.28300    1.000
    Si3855   Si       0.67242    0.64471    0.32462    1.000
    Si3856   Si       0.50548    0.63169    0.42164    1.000
    N3857    N        0.58440    0.60966    0.44919    1.000
    N3858    N        0.52034    0.64048    0.46097    1.000
    Si3859   Si       0.56239    0.63901    0.47522    1.000
    N3860    N        0.53597    0.61364    0.39841    1.000
    Si3861   Si       0.62860    0.61484    0.45429    1.000
    N3862    N        0.70823    0.61692    0.39095    1.000
    N3863    N        0.64757    0.65576    0.44462    1.000
    N3864    N        0.54822    0.61461    0.50888    1.000
    N3865    N        0.52070    0.61313    0.57260    1.000
    N3866    N        0.60431    0.65057    0.55417    1.000
    Si3867   Si       0.50550    0.62071    0.49896    1.000
    N3868    N        0.61784    0.61595    0.61512    1.000
    Si3869   Si       0.61783    0.61300    0.53671    1.000
    N3870    N        0.72209    0.63104    0.56486    1.000
    Si3871   Si       0.68358    0.62040    0.58082    1.000
    Si3872   Si       0.62326    0.65142    0.59266    1.000
    N3873    N        0.65580    0.59962    0.55416    1.000
    Si3874   Si       0.73632    0.61198    0.52784    1.000
    N3875    N        0.62840    0.62425    0.49726    1.000
    Si3876   Si       0.67703    0.59739    0.69733    1.000
    N3877    N        0.51128    0.60463    0.64928    1.000
    Si3878   Si       0.50952    0.63021    0.68789    1.000
    Si3879   Si       0.60628    0.62065    0.65866    1.000
    N3880    N        0.50951    0.65002    0.73063    1.000
    N3881    N        0.64524    0.60321    0.66848    1.000
    N3882    N        0.69693    0.63157    0.71857    1.000
    Si3883   Si       0.73530    0.62685    0.73994    1.000
    N3884    N        0.56944    0.61194    0.83312    1.000
    Si3885   Si       0.54645    0.63934    0.85564    1.000
    N3886    N        0.50638    0.64590    0.84342    1.000
    Si3887   Si       0.61196    0.60515    0.82909    1.000
    Si3888   Si       0.71094    0.63588    0.80495    1.000
    N3889    N        0.63697    0.63796    0.84199    1.000
    Si3890   Si       0.65194    0.60825    0.76370    1.000
    N3891    N        0.69183    0.60369    0.78300    1.000
    N3892    N        0.73128    0.62015    0.83905    1.000
    N3893    N        0.64089    0.65071    0.75265    1.000
    N3894    N        0.73063    0.61041    0.94235    1.000
    Si3895   Si       0.59161    0.60614    0.90459    1.000
    N3896    N        0.55569    0.62812    0.89794    1.000
    N3897    N        0.49903    0.62274    0.94268    1.000
    Si3898   Si       0.49848    0.60834    0.98372    1.000
    Si3899   Si       0.53109    0.64685    0.92996    1.000
    N3900    N        0.60791    0.61194    0.98075    1.000
    Si3901   Si       0.57189    0.63150    0.99212    1.000
    N3902    N        0.68788    0.62521    0.88915    1.000
    Si3903   Si       0.71177    0.64076    0.96424    1.000
    N3904    N        0.62413    0.62947    0.91752    1.000
    Si3905   Si       0.63628    0.63728    0.95872    1.000
    Si3906   Si       0.64618    0.61997    0.87967    1.000
    N3907    N        0.67272    0.62798    0.98270    1.000
    Si3908   Si       0.55247    0.69428    0.02275    1.000
    N3909    N        0.51144    0.69085    0.01324    1.000
    N3910    N        0.57261    0.65498    0.02800    1.000
    Si3911   Si       0.63202    0.66549    0.19094    1.000
    Si3912   Si       0.68259    0.67968    0.07058    1.000
    Si3913   Si       0.64804    0.69026    0.00896    1.000
    N3914    N        0.72519    0.66720    0.06750    1.000
    N3915    N        0.66014    0.66005    0.03789    1.000
    N3916    N        0.65987    0.66264    0.10743    1.000
    N3917    N        0.55957    0.69210    0.16020    1.000
    N3918    N        0.56362    0.68651    0.23232    1.000
    Si3919   Si       0.51889    0.69532    0.14034    1.000
    Si3920   Si       0.52376    0.67283    0.24282    1.000
    Si3921   Si       0.57593    0.70901    0.19592    1.000
    N3922    N        0.72538    0.65927    0.13678    1.000
    N3923    N        0.51404    0.65242    0.13712    1.000
    N3924    N        0.61887    0.70608    0.19576    1.000
    Si3925   Si       0.70514    0.69115    0.20637    1.000
    N3926    N        0.67424    0.67250    0.18129    1.000
    N3927    N        0.72997    0.66610    0.23388    1.000
    N3928    N        0.62248    0.65260    0.23242    1.000
    N3929    N        0.51637    0.69189    0.28014    1.000
    Si3930   Si       0.60273    0.68497    0.35290    1.000
    Si3931   Si       0.59846    0.67695    0.25779    1.000
    Si3932   Si       0.72229    0.65478    0.38274    1.000
    N3933    N        0.56561    0.66898    0.36980    1.000
    N3934    N        0.70260    0.66759    0.34567    1.000
    Si3935   Si       0.72088    0.69800    0.32270    1.000
    Si3936   Si       0.67031    0.70421    0.27123    1.000
    N3937    N        0.62753    0.70757    0.27567    1.000
    N3938    N        0.68033    0.66305    0.28469    1.000
    N3939    N        0.63197    0.65633    0.33539    1.000
    N3940    N        0.49651    0.66705    0.40117    1.000
    N3941    N        0.57665    0.67813    0.48989    1.000
    Si3942   Si       0.53168    0.68871    0.39121    1.000
    N3943    N        0.54736    0.70720    0.42656    1.000
    Si3944   Si       0.56837    0.71392    0.46637    1.000
    N3945    N        0.71747    0.68094    0.41631    1.000
    N3946    N        0.69013    0.67556    0.48326    1.000
    Si3947   Si       0.64834    0.66293    0.48957    1.000
    Si3948   Si       0.68245    0.68421    0.44144    1.000
    N3949    N        0.62014    0.71325    0.38106    1.000
    Si3950   Si       0.59547    0.68485    0.52812    1.000
    N3951    N        0.57360    0.70859    0.55844    1.000
    Si3952   Si       0.58425    0.70885    0.60076    1.000
    N3953    N        0.48500    0.67539    0.59498    1.000
    N3954    N        0.63617    0.69706    0.51468    1.000
    N3955    N        0.71301    0.69764    0.53935    1.000
    Si3956   Si       0.72269    0.67378    0.57671    1.000
    N3957    N        0.70665    0.69979    0.61187    1.000
    Si3958   Si       0.66474    0.70045    0.60097    1.000
    Si3959   Si       0.72829    0.67931    0.50196    1.000
    N3960    N        0.62293    0.68827    0.61533    1.000
    N3961    N        0.66601    0.65945    0.58504    1.000
    N3962    N        0.55252    0.69575    0.62700    1.000
    Si3963   Si       0.55937    0.68254    0.66761    1.000
    N3964    N        0.55690    0.69823    0.70948    1.000
    Si3965   Si       0.50708    0.68872    0.63067    1.000
    N3966    N        0.51817    0.66596    0.66565    1.000
    N3967    N        0.59606    0.66002    0.66937    1.000
    Si3968   Si       0.53629    0.67949    0.74535    1.000
    Si3969   Si       0.62873    0.68842    0.66123    1.000
    N3970    N        0.66672    0.68224    0.68092    1.000
    N3971    N        0.69743    0.69701    0.73667    1.000
    Si3972   Si       0.66901    0.66638    0.72272    1.000
    Si3973   Si       0.70300    0.70821    0.69257    1.000
    N3974    N        0.61888    0.71195    0.74401    1.000
    N3975    N        0.56496    0.68007    0.85415    1.000
    Si3976   Si       0.57145    0.69513    0.81483    1.000
    N3977    N        0.56699    0.67225    0.77785    1.000
    N3978    N        0.50619    0.70570    0.76527    1.000
    Si3979   Si       0.61024    0.67587    0.76866    1.000
    N3980    N        0.61796    0.69674    0.80673    1.000
    Si3981   Si       0.70133    0.70264    0.78122    1.000
    Si3982   Si       0.64973    0.67832    0.83193    1.000
    N3983    N        0.68728    0.67265    0.80960    1.000
    N3984    N        0.66357    0.68919    0.87423    1.000
    Si3985   Si       0.55615    0.70170    0.89168    1.000
    N3986    N        0.52085    0.68333    0.90977    1.000
    Si3987   Si       0.58706    0.69326    0.96151    1.000
    N3988    N        0.58539    0.71161    0.92318    1.000
    N3989    N        0.55859    0.65885    0.96233    1.000
    N3990    N        0.73812    0.67486    0.89034    1.000
    Si3991   Si       0.69418    0.66780    0.89509    1.000
    N3992    N        0.62480    0.67594    0.97356    1.000
    N3993    N        0.69186    0.67215    0.93870    1.000
    Si3994   Si       0.69819    0.71369    0.95530    1.000
    Si3995   Si       0.53658    0.74145    0.08801    1.000
    Si3996   Si       0.58580    0.74728    0.02927    1.000
    N3997    N        0.55718    0.72447    0.05366    1.000
    N3998    N        0.50931    0.71164    0.09930    1.000
    Si3999   Si       0.69913    0.73988    0.02552    1.000
    Si4000   Si       0.64476    0.75094    0.05761    1.000
    N4001    N        0.68267    0.72125    0.06032    1.000
    N4002    N        0.62234    0.72144    0.02890    1.000
    N4003    N        0.73623    0.77181    0.14324    1.000
    N4004    N        0.55532    0.75886    0.12405    1.000
    N4005    N        0.49559    0.72113    0.16580    1.000
    N4006    N        0.57150    0.75280    0.19618    1.000
    N4007    N        0.49413    0.74572    0.23896    1.000
    Si4008   Si       0.58884    0.77385    0.22834    1.000
    Si4009   Si       0.57079    0.77560    0.15939    1.000
    N4010    N        0.63363    0.76725    0.22313    1.000
    Si4011   Si       0.64963    0.73416    0.20084    1.000
    N4012    N        0.66495    0.75279    0.16428    1.000
    N4013    N        0.72915    0.71932    0.18518    1.000
    N4014    N        0.67784    0.71504    0.23041    1.000
    N4015    N        0.52149    0.75398    0.31016    1.000
    Si4016   Si       0.54651    0.73708    0.34075    1.000
    Si4017   Si       0.49892    0.73182    0.28005    1.000
    N4018    N        0.58001    0.75525    0.26596    1.000
    Si4019   Si       0.60336    0.73699    0.29563    1.000
    N4020    N        0.58285    0.71988    0.32979    1.000
    Si4021   Si       0.60804    0.75305    0.36007    1.000
    N4022    N        0.69867    0.72495    0.29777    1.000
    N4023    N        0.62078    0.76908    0.32066    1.000
    Si4024   Si       0.70407    0.76901    0.29085    1.000
    N4025    N        0.56508    0.76285    0.37319    1.000
    Si4026   Si       0.56049    0.75029    0.41635    1.000
    N4027    N        0.59444    0.73961    0.44159    1.000
    Si4028   Si       0.52410    0.76868    0.47549    1.000
    N4029    N        0.54699    0.73823    0.49587    1.000
    Si4030   Si       0.63056    0.73557    0.41797    1.000
    Si4031   Si       0.67840    0.76068    0.46489    1.000
    N4032    N        0.66464    0.72547    0.44164    1.000
    N4033    N        0.62919    0.77247    0.39392    1.000
    N4034    N        0.51470    0.71735    0.36270    1.000
    Si4035   Si       0.54504    0.73603    0.53910    1.000
    N4036    N        0.50506    0.73068    0.55307    1.000
    N4037    N        0.59631    0.74904    0.61148    1.000
    N4038    N        0.67985    0.75646    0.50765    1.000
    N4039    N        0.65762    0.72962    0.56915    1.000
    Si4040   Si       0.67171    0.71830    0.52913    1.000
    Si4041   Si       0.65573    0.77000    0.58716    1.000
    N4042    N        0.49179    0.75043    0.71576    1.000
    Si4043   Si       0.58976    0.72522    0.71307    1.000
    N4044    N        0.57161    0.76486    0.72438    1.000
    N4045    N        0.61206    0.72621    0.67551    1.000
    Si4046   Si       0.48747    0.75637    0.67170    1.000
    N4047    N        0.70654    0.75113    0.68349    1.000
    Si4048   Si       0.61986    0.75694    0.64558    1.000
    N4049    N        0.66027    0.75607    0.62992    1.000
    N4050    N        0.55382    0.73473    0.80981    1.000
    Si4051   Si       0.51111    0.72766    0.80134    1.000
    N4052    N        0.60589    0.76567    0.78500    1.000
    N4053    N        0.49854    0.71817    0.84151    1.000
    N4054    N        0.48928    0.76532    0.79530    1.000
    Si4055   Si       0.50890    0.74967    0.87018    1.000
    Si4056   Si       0.57533    0.77062    0.81722    1.000
    Si4057   Si       0.63101    0.73344    0.77965    1.000
    N4058    N        0.67325    0.73385    0.79114    1.000
    N4059    N        0.67836    0.75606    0.86134    1.000
    Si4060   Si       0.68415    0.76646    0.81926    1.000
    Si4061   Si       0.55123    0.75773    0.97575    1.000
    N4062    N        0.55129    0.74510    0.88276    1.000
    N4063    N        0.50914    0.75429    0.97271    1.000
    Si4064   Si       0.58308    0.75284    0.91158    1.000
    N4065    N        0.56915    0.72176    0.99039    1.000
    Si4066   Si       0.70677    0.76297    0.89487    1.000
    N4067    N        0.67917    0.73652    0.92359    1.000
    Si4068   Si       0.65441    0.72977    0.88711    1.000
    N4069    N        0.62259    0.75788    0.89336    1.000
    N4070    N        0.68225    0.71550    0.99343    1.000
    Si4071   Si       0.59068    0.80870    0.02606    1.000
    N4072    N        0.51585    0.77905    0.08064    1.000
    N4073    N        0.56188    0.77977    0.01159    1.000
    N4074    N        0.60996    0.77780    0.05181    1.000
    Si4075   Si       0.52920    0.80114    0.11749    1.000
    Si4076   Si       0.68940    0.79625    0.06933    1.000
    Si4077   Si       0.66025    0.81768    0.01264    1.000
    N4078    N        0.73158    0.78500    0.06946    1.000
    N4079    N        0.67387    0.77755    0.02885    1.000
    N4080    N        0.73691    0.82643    0.01519    1.000
    N4081    N        0.66154    0.77214    0.09418    1.000
    N4082    N        0.54217    0.80778    0.16302    1.000
    N4083    N        0.58079    0.81598    0.22484    1.000
    N4084    N        0.60757    0.79544    0.14792    1.000
    N4085    N        0.68168    0.81328    0.14060    1.000
    Si4086   Si       0.73833    0.80128    0.22581    1.000
    N4087    N        0.69856    0.79250    0.20591    1.000
    Si4088   Si       0.69774    0.78007    0.16472    1.000
    Si4089   Si       0.64442    0.79755    0.12510    1.000
    Si4090   Si       0.66430    0.79609    0.23330    1.000
    N4091    N        0.52008    0.80573    0.26046    1.000
    Si4092   Si       0.51731    0.79671    0.30305    1.000
    N4093    N        0.55132    0.81538    0.32579    1.000
    N4094    N        0.61199    0.82869    0.28269    1.000
    Si4095   Si       0.54758    0.80509    0.36849    1.000
    Si4096   Si       0.64091    0.80458    0.30459    1.000
    N4097    N        0.67127    0.79066    0.27533    1.000
    N4098    N        0.71498    0.78345    0.33104    1.000
    Si4099   Si       0.69876    0.81679    0.35036    1.000
    N4100    N        0.65969    0.82640    0.33560    1.000
    N4101    N        0.73781    0.78666    0.26611    1.000
    Si4102   Si       0.49630    0.79905    0.42019    1.000
    N4103    N        0.50472    0.80910    0.37987    1.000
    N4104    N        0.53318    0.80779    0.49282    1.000
    N4105    N        0.52808    0.77292    0.43344    1.000
    N4106    N        0.65477    0.79630    0.45069    1.000
    Si4107   Si       0.65276    0.80360    0.40825    1.000
    N4108    N        0.69212    0.80375    0.39065    1.000
    Si4109   Si       0.72453    0.79604    0.41682    1.000
    N4110    N        0.71577    0.77763    0.45545    1.000
    Si4111   Si       0.54965    0.80931    0.53129    1.000
    Si4112   Si       0.58517    0.78248    0.58698    1.000
    N4113    N        0.56446    0.81232    0.61309    1.000
    N4114    N        0.51814    0.82476    0.55552    1.000
    N4115    N        0.56100    0.77397    0.55229    1.000
    N4116    N        0.62558    0.79766    0.57557    1.000
    Si4117   Si       0.68689    0.79532    0.52587    1.000
    N4118    N        0.68974    0.79167    0.56966    1.000
    Si4119   Si       0.72475    0.80612    0.58954    1.000
    N4120    N        0.72543    0.81604    0.51682    1.000
    N4121    N        0.65368    0.82087    0.51658    1.000
    Si4122   Si       0.62472    0.82925    0.54689    1.000
    Si4123   Si       0.58896    0.82505    0.64568    1.000
    N4124    N        0.52151    0.78409    0.67373    1.000
    N4125    N        0.52509    0.81117    0.74043    1.000
    Si4126   Si       0.52739    0.82418    0.66003    1.000
    Si4127   Si       0.52938    0.77561    0.71736    1.000
    N4128    N        0.61180    0.79477    0.66395    1.000
    Si4129   Si       0.63924    0.81649    0.69235    1.000
    Si4130   Si       0.72779    0.77949    0.70972    1.000
    N4131    N        0.71772    0.80786    0.63194    1.000
    Si4132   Si       0.69169    0.77772    0.65289    1.000
    N4133    N        0.63945    0.79422    0.73003    1.000
    N4134    N        0.67931    0.81232    0.67850    1.000
    N4135    N        0.55250    0.80656    0.80125    1.000
    N4136    N        0.59416    0.79595    0.84782    1.000
    Si4137   Si       0.50992    0.80213    0.81218    1.000
    N4138    N        0.50691    0.78945    0.85422    1.000
    Si4139   Si       0.60088    0.78720    0.74600    1.000
    Si4140   Si       0.66894    0.80524    0.76025    1.000
    N4141    N        0.66434    0.80199    0.80305    1.000
    N4142    N        0.72547    0.78046    0.81664    1.000
    Si4143   Si       0.73633    0.80125    0.77990    1.000
    N4144    N        0.51451    0.80919    0.92110    1.000
    Si4145   Si       0.59731    0.81517    0.95346    1.000
    Si4146   Si       0.51173    0.82326    0.88139    1.000
    N4147    N        0.57634    0.77734    0.94627    1.000
    Si4148   Si       0.49172    0.77574    0.93727    1.000
    N4149    N        0.61142    0.82345    0.91308    1.000
    N4150    N        0.71473    0.79881    0.91493    1.000
    Si4151   Si       0.62321    0.79946    0.87901    1.000
    N4152    N        0.62025    0.81229    0.99249    1.000
    N4153    N        0.65980    0.82405    0.87094    1.000
    N4154    N        0.59145    0.83006    0.75397    1.000
    N4155    N        0.70956    0.79016    0.74848    1.000
    N4156    N        0.57743    0.84567    0.04177    1.000
    Si4157   Si       0.54865    0.85399    0.07345    1.000
    N4158    N        0.50824    0.84905    0.06179    1.000
    Si4159   Si       0.59483    0.88554    0.04646    1.000
    N4160    N        0.55987    0.82931    0.10684    1.000
    Si4161   Si       0.65848    0.86202    0.08423    1.000
    Si4162   Si       0.70852    0.85884    0.02678    1.000
    N4163    N        0.68384    0.88138    0.11311    1.000
    N4164    N        0.63246    0.83762    0.10732    1.000
    N4165    N        0.67711    0.83499    0.05575    1.000
    N4166    N        0.72203    0.88487    0.05942    1.000
    N4167    N        0.67691    0.85298    0.99522    1.000
    Si4168   Si       0.50189    0.83265    0.17051    1.000
    N4169    N        0.60002    0.88043    0.22761    1.000
    N4170    N        0.58667    0.85799    0.16521    1.000
    N4171    N        0.52270    0.85263    0.20908    1.000
    Si4172   Si       0.59619    0.83420    0.13032    1.000
    Si4173   Si       0.61155    0.84082    0.24075    1.000
    N4174    N        0.49153    0.81901    0.13079    1.000
    N4175    N        0.70253    0.86479    0.18144    1.000
    Si4176   Si       0.70328    0.84989    0.14023    1.000
    Si4177   Si       0.66740    0.87000    0.20546    1.000
    N4178    N        0.64889    0.83388    0.21902    1.000
    Si4179   Si       0.60290    0.89266    0.18556    1.000
    Si4180   Si       0.56181    0.83577    0.19306    1.000
    N4181    N        0.55469    0.86812    0.28255    1.000
    Si4182   Si       0.58119    0.84364    0.30901    1.000
    N4183    N        0.60559    0.86376    0.33929    1.000
    Si4184   Si       0.52739    0.84759    0.25375    1.000
    Si4185   Si       0.71260    0.87068    0.44101    1.000
    N4186    N        0.72105    0.85493    0.34800    1.000
    Si4187   Si       0.64023    0.85561    0.36176    1.000
    Si4188   Si       0.59612    0.84871    0.42300    1.000
    Si4189   Si       0.50856    0.84186    0.48314    1.000
    Si4190   Si       0.55038    0.87590    0.38938    1.000
    N4191    N        0.56352    0.83330    0.39626    1.000
    N4192    N        0.49742    0.83657    0.44252    1.000
    N4193    N        0.60785    0.84640    0.46514    1.000
    N4194    N        0.53761    0.87219    0.49679    1.000
    N4195    N        0.66320    0.89318    0.36546    1.000
    N4196    N        0.67738    0.86622    0.46622    1.000
    Si4197   Si       0.64837    0.83282    0.47419    1.000
    N4198    N        0.63268    0.84055    0.40242    1.000
    Si4199   Si       0.60243    0.87617    0.59372    1.000
    N4200    N        0.55870    0.87503    0.58851    1.000
    Si4201   Si       0.53487    0.84094    0.59253    1.000
    N4202    N        0.58555    0.83387    0.53079    1.000
    N4203    N        0.63506    0.86378    0.57034    1.000
    N4204    N        0.70076    0.87789    0.53159    1.000
    Si4205   Si       0.73728    0.85449    0.53762    1.000
    N4206    N        0.50520    0.84291    0.62553    1.000
    N4207    N        0.56389    0.84061    0.67638    1.000
    N4208    N        0.53586    0.87252    0.74115    1.000
    Si4209   Si       0.50072    0.84405    0.72713    1.000
    Si4210   Si       0.54770    0.87454    0.69872    1.000
    N4211    N        0.50530    0.85475    0.68761    1.000
    N4212    N        0.60941    0.86068    0.63406    1.000
    Si4213   Si       0.61362    0.88471    0.67002    1.000
    Si4214   Si       0.62427    0.85673    0.74405    1.000
    N4215    N        0.70798    0.87645    0.68231    1.000
    Si4216   Si       0.71452    0.83452    0.66556    1.000
    N4217    N        0.63382    0.86108    0.70080    1.000
    Si4218   Si       0.66965    0.88911    0.56091    1.000
    Si4219   Si       0.67088    0.89187    0.69496    1.000
    Si4220   Si       0.58327    0.86322    0.49757    1.000
    Si4221   Si       0.52056    0.86832    0.83508    1.000
    N4222    N        0.55830    0.86832    0.80452    1.000
    N4223    N        0.49754    0.84264    0.80328    1.000
    N4224    N        0.54557    0.84415    0.86089    1.000
    Si4225   Si       0.55069    0.83992    0.76945    1.000
    Si4226   Si       0.59677    0.88594    0.80270    1.000
    Si4227   Si       0.57673    0.83330    0.83157    1.000
    N4228    N        0.73602    0.88541    0.99610    1.000
    N4229    N        0.61517    0.85421    0.82603    1.000
    Si4230   Si       0.71640    0.88111    0.84454    1.000
    Si4231   Si       0.69762    0.86875    0.77797    1.000
    N4232    N        0.68380    0.86493    0.81792    1.000
    N4233    N        0.66698    0.84748    0.75564    1.000
    Si4234   Si       0.65345    0.83688    0.82848    1.000
    N4235    N        0.73437    0.84438    0.77778    1.000
    Si4236   Si       0.58377    0.88210    0.96954    1.000
    Si4237   Si       0.52598    0.84191    0.94828    1.000
    N4238    N        0.56591    0.84395    0.96006    1.000
    N4239    N        0.50953    0.87212    0.92188    1.000
    N4240    N        0.50588    0.84622    0.98555    1.000
    Si4241   Si       0.66276    0.88132    0.96546    1.000
    Si4242   Si       0.69335    0.83312    0.89880    1.000
    Si4243   Si       0.63533    0.85967    0.91157    1.000
    N4244    N        0.62210    0.87637    0.95146    1.000
    N4245    N        0.72653    0.85228    0.87627    1.000
    N4246    N        0.67571    0.86011    0.92717    1.000
    Si4247   Si       0.53841    0.92493    0.09463    1.000
    N4248    N        0.59736    0.90055    0.00669    1.000
    N4249    N        0.56344    0.89717    0.07654    1.000
    N4250    N        0.70068    0.93334    0.14398    1.000
    Si4251   Si       0.64191    0.93362    0.07416    1.000
    Si4252   Si       0.71144    0.91076    0.09608    1.000
    N4253    N        0.68514    0.94191    0.07743    1.000
    Si4254   Si       0.62288    0.93615    0.00021    1.000
    N4255    N        0.63010    0.93131    0.11763    1.000
    N4256    N        0.63416    0.89164    0.06417    1.000
    N4257    N        0.51066    0.91569    0.12806    1.000
    N4258    N        0.58739    0.93183    0.17433    1.000
    N4259    N        0.55780    0.93094    0.24254    1.000
    Si4260   Si       0.66390    0.91148    0.14115    1.000
    N4261    N        0.64421    0.89480    0.17656    1.000
    N4262    N        0.73518    0.91726    0.21563    1.000
    N4263    N        0.67436    0.89397    0.24031    1.000
    Si4264   Si       0.59215    0.90368    0.33826    1.000
    N4265    N        0.59674    0.92122    0.29903    1.000
    Si4266   Si       0.58272    0.90207    0.26133    1.000
    N4267    N        0.51538    0.93427    0.30199    1.000
    Si4268   Si       0.52648    0.89141    0.31196    1.000
    N4269    N        0.55129    0.89505    0.34852    1.000
    N4270    N        0.60600    0.93361    0.36837    1.000
    Si4271   Si       0.70665    0.89423    0.36155    1.000
    N4272    N        0.71361    0.92855    0.33745    1.000
    Si4273   Si       0.70783    0.91535    0.25087    1.000
    N4274    N        0.73704    0.89946    0.27708    1.000
    N4275    N        0.71970    0.89642    0.40510    1.000
    Si4276   Si       0.59110    0.93078    0.41050    1.000
    Si4277   Si       0.51586    0.93198    0.43208    1.000
    N4278    N        0.53670    0.94440    0.47281    1.000
    N4279    N        0.51231    0.89578    0.40157    1.000
    N4280    N        0.58406    0.88954    0.41518    1.000
    N4281    N        0.68394    0.93176    0.47348    1.000
    Si4282   Si       0.64907    0.92971    0.38301    1.000
    N4283    N        0.63331    0.93321    0.42287    1.000
    N4284    N        0.53890    0.92458    0.54457    1.000
    N4285    N        0.59965    0.91971    0.58929    1.000
    Si4286   Si       0.55560    0.91835    0.58332    1.000
    Si4287   Si       0.49953    0.94000    0.54194    1.000
    Si4288   Si       0.54840    0.91587    0.50213    1.000
    N4289    N        0.59084    0.90665    0.50575    1.000
    Si4290   Si       0.49798    0.94357    0.62036    1.000
    N4291    N        0.54107    0.94497    0.61355    1.000
    Si4292   Si       0.62010    0.93900    0.51544    1.000
    N4293    N        0.65153    0.91497    0.52964    1.000
    Si4294   Si       0.73372    0.90555    0.61452    1.000
    N4295    N        0.69378    0.89616    0.59832    1.000
    Si4296   Si       0.68019    0.89718    0.49934    1.000
    Si4297   Si       0.73895    0.94231    0.55366    1.000
    Si4298   Si       0.56539    0.94166    0.70281    1.000
    N4299    N        0.52277    0.93091    0.71155    1.000
    N4300    N        0.57620    0.90352    0.68658    1.000
    Si4301   Si       0.49150    0.93739    0.68165    1.000
    N4302    N        0.71499    0.93471    0.64144    1.000
    N4303    N        0.73653    0.93906    0.70514    1.000
    N4304    N        0.67007    0.92568    0.72329    1.000
    Si4305   Si       0.67581    0.92148    0.62907    1.000
    N4306    N        0.64933    0.90809    0.66082    1.000
    N4307    N        0.59135    0.92288    0.82542    1.000
    N4308    N        0.51423    0.91169    0.83558    1.000
    Si4309   Si       0.54861    0.93565    0.82229    1.000
    N4310    N        0.54407    0.93891    0.77984    1.000
    Si4311   Si       0.52093    0.91316    0.75288    1.000
    Si4312   Si       0.60521    0.91629    0.86732    1.000
    Si4313   Si       0.49954    0.94675    0.85967    1.000
    N4314    N        0.61892    0.89312    0.76743    1.000
    N4315    N        0.71897    0.90492    0.77603    1.000
    N4316    N        0.69865    0.91536    0.86320    1.000
    Si4317   Si       0.63385    0.93159    0.75166    1.000
    N4318    N        0.50799    0.93924    0.90218    1.000
    Si4319   Si       0.53604    0.90595    0.91444    1.000
    N4320    N        0.55480    0.91161    0.95294    1.000
    N4321    N        0.56859    0.91122    0.88709    1.000
    N4322    N        0.69037    0.93988    0.91831    1.000
    N4323    N        0.63552    0.89346    0.88758    1.000
    N4324    N        0.65954    0.92362    0.97826    1.000
    Si4325   Si       0.72550    0.93214    0.89369    1.000
    Si4326   Si       0.66354    0.92583    0.88588    1.000
    Si4327   Si       0.50186    0.95513    0.02712    1.000
    N4328    N        0.55900    0.95539    0.11894    1.000
    N4329    N        0.53814    0.95156    0.00550    1.000
    Si4330   Si       0.68865    0.98533    0.08076    1.000
    N4331    N        0.72234    0.99945    0.05646    1.000
    Si4332   Si       0.62180    0.99957    0.04219    1.000
    N4333    N        0.62250    0.95458    0.04129    1.000
    Si4334   Si       0.49565    0.95922    0.21416    1.000
    N4335    N        0.49409    0.98827    0.12542    1.000
    N4336    N        0.59053    0.98807    0.21245    1.000
    N4337    N        0.52689    0.95849    0.18292    1.000
    Si4338   Si       0.52173    0.95850    0.14054    1.000
    Si4339   Si       0.56474    0.95136    0.20523    1.000
    Si4340   Si       0.59783    0.95169    0.13475    1.000
    N4341    N        0.61136    0.99145    0.14392    1.000
    N4342    N        0.71929    0.98289    0.19418    1.000
    N4343    N        0.68474    0.99628    0.12531    1.000
    Si4344   Si       0.71165    0.97569    0.15161    1.000
    N4345    N        0.65594    0.00864    0.06627    1.000
    N4346    N        0.51216    0.94705    0.06899    1.000
    N4347    N        0.51374    0.97918    0.24650    1.000
    N4348    N        0.57421    0.98345    0.28408    1.000
    N4349    N        0.56465    0.98991    0.35498    1.000
    Si4350   Si       0.60408    0.97753    0.36568    1.000
    Si4351   Si       0.54038    0.95709    0.27365    1.000
    N4352    N        0.50233    0.99254    0.36119    1.000
    Si4353   Si       0.60132    0.00079    0.25188    1.000
    Si4354   Si       0.61275    0.96106    0.29796    1.000
    N4355    N        0.73931    0.98898    0.37065    1.000
    N4356    N        0.62558    0.98865    0.32993    1.000
    N4357    N        0.69437    0.99278    0.31302    1.000
    N4358    N        0.63465    0.97482    0.26492    1.000
    Si4359   Si       0.70711    0.96925    0.35079    1.000
    Si4360   Si       0.67671    0.98233    0.27211    1.000
    N4361    N        0.70697    0.95701    0.25706    1.000
    Si4362   Si       0.73335    0.00018    0.28899    1.000
    N4363    N        0.55257    0.94940    0.40974    1.000
    N4364    N        0.49308    0.96812    0.41832    1.000
    Si4365   Si       0.53629    0.98309    0.38892    1.000
    Si4366   Si       0.53227    0.98313    0.48795    1.000
    N4367    N        0.62295    0.96688    0.48299    1.000
    N4368    N        0.61239    0.99546    0.40214    1.000
    Si4369   Si       0.72238    0.95041    0.47649    1.000
    Si4370   Si       0.65349    0.95526    0.45489    1.000
    N4371    N        0.67077    0.99220    0.44013    1.000
    N4372    N        0.71679    0.99173    0.49064    1.000
    Si4373   Si       0.65689    0.00060    0.39843    1.000
    N4374    N        0.67302    0.96657    0.37575    1.000
    N4375    N        0.49934    0.97574    0.51715    1.000
    N4376    N        0.59506    0.98406    0.61727    1.000
    N4377    N        0.56584    0.00575    0.49955    1.000
    N4378    N        0.61587    0.96824    0.54998    1.000
    Si4379   Si       0.61812    0.95866    0.59184    1.000
    Si4380   Si       0.73267    0.99718    0.53195    1.000
    N4381    N        0.70675    0.97340    0.55910    1.000
    Si4382   Si       0.68540    0.98574    0.59431    1.000
    N4383    N        0.65817    0.95341    0.60554    1.000
    N4384    N        0.49154    0.97176    0.65314    1.000
    N4385    N        0.56515    0.97928    0.67900    1.000
    Si4386   Si       0.55553    0.97817    0.63604    1.000
    N4387    N        0.59561    0.94657    0.73440    1.000
    Si4388   Si       0.70125    0.95798    0.72126    1.000
    Si4389   Si       0.72214    0.97291    0.65860    1.000
    N4390    N        0.69137    0.98563    0.68934    1.000
    N4391    N        0.71214    0.00007    0.62442    1.000
    N4392    N        0.53424    0.97069    0.84326    1.000
    N4393    N        0.59484    0.98693    0.79795    1.000
    Si4394   Si       0.57368    0.96761    0.76505    1.000
    N4395    N        0.55556    0.00188    0.74501    1.000
    Si4396   Si       0.62009    0.95649    0.81737    1.000
    N4397    N        0.71504    0.97284    0.75984    1.000
    Si4398   Si       0.67957    0.98269    0.78531    1.000
    N4399    N        0.69400    0.98895    0.82640    1.000
    Si4400   Si       0.66253    0.99306    0.85667    1.000
    N4401    N        0.63748    0.95396    0.85958    1.000
    Si4402   Si       0.73621    0.98845    0.84075    1.000
    N4403    N        0.64785    0.95318    0.78621    1.000
    N4404    N        0.60029    0.96308    0.97356    1.000
    N4405    N        0.54126    0.98177    0.94377    1.000
    Si4406   Si       0.50292    0.97249    0.92622    1.000
    Si4407   Si       0.55974    0.95020    0.96880    1.000
    N4408    N        0.71981    0.95681    0.97874    1.000
    Si4409   Si       0.68152    0.95416    0.95809    1.000
    N4410    N        0.66323    0.99199    0.95123    1.000
    Si4411   Si       0.62187    0.99921    0.96498    1.000
    N4412    N        0.76733    0.05164    0.04605    1.000
    Si4413   Si       0.78658    0.03090    0.07973    1.000
    N4414    N        0.82760    0.03879    0.09242    1.000
    N4415    N        0.76389    0.04883    0.11173    1.000
    Si4416   Si       0.78299    0.04042    0.00457    1.000
    Si4417   Si       0.97028    0.02006    0.04828    1.000
    Si4418   Si       0.90887    0.04740    0.07328    1.000
    N4419    N        0.94668    0.05611    0.05211    1.000
    N4420    N        0.92375    0.04229    0.11654    1.000
    Si4421   Si       0.80673    0.05264    0.19118    1.000
    Si4422   Si       0.76797    0.02357    0.14734    1.000
    N4423    N        0.81000    0.02311    0.15607    1.000
    N4424    N        0.81622    0.03038    0.22698    1.000
    N4425    N        0.76266    0.04923    0.18250    1.000
    Si4426   Si       0.96689    0.03109    0.12155    1.000
    N4427    N        0.97550    0.01006    0.15817    1.000
    Si4428   Si       0.89337    0.02876    0.20824    1.000
    Si4429   Si       0.97370    0.03599    0.19508    1.000
    Si4430   Si       0.90249    0.02189    0.14779    1.000
    N4431    N        0.93076    0.04973    0.19408    1.000
    N4432    N        0.87269    0.04587    0.17003    1.000
    N4433    N        0.97824    0.00785    0.22750    1.000
    Si4434   Si       0.83122    0.04705    0.32662    1.000
    Si4435   Si       0.76164    0.02172    0.34953    1.000
    N4436    N        0.85209    0.04885    0.28815    1.000
    Si4437   Si       0.84288    0.01940    0.25891    1.000
    N4438    N        0.74532    0.03720    0.31156    1.000
    N4439    N        0.80253    0.01358    0.33605    1.000
    N4440    N        0.85964    0.04504    0.35897    1.000
    Si4441   Si       0.93972    0.02078    0.33577    1.000
    Si4442   Si       0.97345    0.01812    0.27199    1.000
    N4443    N        0.98076    0.06235    0.27252    1.000
    N4444    N        0.93048    0.06141    0.34441    1.000
    N4445    N        0.98359    0.01738    0.35056    1.000
    N4446    N        0.93498    0.01069    0.29318    1.000
    N4447    N        0.76525    0.05134    0.38097    1.000
    Si4448   Si       0.77741    0.02008    0.45592    1.000
    N4449    N        0.78709    0.00729    0.49495    1.000
    N4450    N        0.91127    0.04232    0.40833    1.000
    N4451    N        0.78639    0.06233    0.45317    1.000
    Si4452   Si       0.88304    0.01812    0.38279    1.000
    Si4453   Si       0.91586    0.04579    0.45085    1.000
    N4454    N        0.95754    0.05437    0.46035    1.000
    Si4455   Si       0.75442    0.06901    0.42171    1.000
    N4456    N        0.91358    0.00654    0.46862    1.000
    N4457    N        0.80863    0.03892    0.56097    1.000
    Si4458   Si       0.78303    0.03943    0.52494    1.000
    Si4459   Si       0.84622    0.02538    0.54221    1.000
    Si4460   Si       0.80679    0.05604    0.60030    1.000
    N4461    N        0.84755    0.04497    0.50382    1.000
    N4462    N        0.73972    0.03890    0.53825    1.000
    Si4463   Si       0.96563    0.04450    0.58941    1.000
    N4464    N        0.88450    0.02901    0.56102    1.000
    N4465    N        0.93796    0.01330    0.60211    1.000
    N4466    N        0.84341    0.05302    0.62223    1.000
    N4467    N        0.77371    0.04238    0.62422    1.000
    Si4468   Si       0.79944    0.03175    0.71704    1.000
    N4469    N        0.81469    0.02576    0.67691    1.000
    N4470    N        0.83863    0.02008    0.73465    1.000
    Si4471   Si       0.85302    0.01171    0.69288    1.000
    N4472    N        0.77611    0.06814    0.72171    1.000
    N4473    N        0.89259    0.02637    0.69162    1.000
    Si4474   Si       0.97210    0.05402    0.66270    1.000
    N4475    N        0.95690    0.01575    0.66808    1.000
    N4476    N        0.83849    0.03430    0.80407    1.000
    N4477    N        0.76910    0.03103    0.78353    1.000
    Si4478   Si       0.80044    0.05506    0.79585    1.000
    N4479    N        0.74447    0.02874    0.85695    1.000
    Si4480   Si       0.78266    0.04772    0.86645    1.000
    Si4481   Si       0.94458    0.00809    0.87784    1.000
    Si4482   Si       0.86490    0.05625    0.83296    1.000
    Si4483   Si       0.98052    0.04555    0.81723    1.000
    N4484    N        0.97433    0.03380    0.85950    1.000
    N4485    N        0.90606    0.05486    0.81763    1.000
    N4486    N        0.96018    0.01634    0.79211    1.000
    Si4487   Si       0.91910    0.01641    0.80671    1.000
    N4488    N        0.75900    0.06048    0.97304    1.000
    Si4489   Si       0.75483    0.04768    0.93239    1.000
    N4490    N        0.82143    0.04101    0.98265    1.000
    Si4491   Si       0.85869    0.02785    0.96139    1.000
    N4492    N        0.80446    0.01261    0.87936    1.000
    N4493    N        0.86092    0.04490    0.87340    1.000
    N4494    N        0.91546    0.02497    0.90652    1.000
    Si4495   Si       0.88798    0.06105    0.90500    1.000
    N4496    N        0.88964    0.02443    0.99125    1.000
    N4497    N        0.81076    0.10083    0.06478    1.000
    Si4498   Si       0.76969    0.09508    0.05621    1.000
    Si4499   Si       0.84262    0.08055    0.08868    1.000
    N4500    N        0.75028    0.11028    0.02066    1.000
    N4501    N        0.74949    0.11336    0.09010    1.000
    N4502    N        0.85674    0.10065    0.99752    1.000
    Si4503   Si       0.88049    0.11041    0.03318    1.000
    Si4504   Si       0.95538    0.09234    0.02755    1.000
    N4505    N        0.87972    0.07907    0.06588    1.000
    N4506    N        0.91854    0.10750    0.00672    1.000
    N4507    N        0.97253    0.12382    0.05036    1.000
    Si4508   Si       0.91349    0.08880    0.20378    1.000
    N4509    N        0.85109    0.10386    0.12440    1.000
    N4510    N        0.82288    0.09311    0.18698    1.000
    N4511    N        0.74229    0.11197    0.21019    1.000
    Si4512   Si       0.86128    0.08701    0.16445    1.000
    Si4513   Si       0.98667    0.11147    0.12204    1.000
    N4514    N        0.88186    0.06887    0.22791    1.000
    N4515    N        0.94672    0.10723    0.22283    1.000
    N4516    N        0.89710    0.10776    0.16879    1.000
    N4517    N        0.81392    0.08496    0.34123    1.000
    N4518    N        0.76850    0.10683    0.27581    1.000
    Si4519   Si       0.85191    0.08803    0.36358    1.000
    Si4520   Si       0.77673    0.09029    0.36182    1.000
    N4521    N        0.74420    0.10231    0.33720    1.000
    N4522    N        0.84405    0.11549    0.27364    1.000
    Si4523   Si       0.74156    0.07838    0.30136    1.000
    Si4524   Si       0.95520    0.09623    0.26502    1.000
    N4525    N        0.91436    0.09380    0.28305    1.000
    Si4526   Si       0.91707    0.09902    0.32634    1.000
    N4527    N        0.87641    0.11094    0.33509    1.000
    Si4528   Si       0.87328    0.08311    0.26846    1.000
    Si4529   Si       0.79195    0.09741    0.47908    1.000
    N4530    N        0.83312    0.11295    0.47769    1.000
    N4531    N        0.84915    0.10615    0.40032    1.000
    N4532    N        0.77489    0.10768    0.40165    1.000
    Si4533   Si       0.88559    0.11013    0.42630    1.000
    Si4534   Si       0.86103    0.08147    0.48962    1.000
    N4535    N        0.88919    0.07991    0.45736    1.000
    N4536    N        0.97799    0.07294    0.39234    1.000
    N4537    N        0.92164    0.11011    0.40059    1.000
    Si4538   Si       0.93600    0.07198    0.38592    1.000
    N4539    N        0.94650    0.12653    0.34126    1.000
    N4540    N        0.80409    0.09953    0.59218    1.000
    Si4541   Si       0.78335    0.10866    0.55567    1.000
    N4542    N        0.78654    0.08284    0.52144    1.000
    N4543    N        0.74102    0.10671    0.56467    1.000
    N4544    N        0.88644    0.09162    0.52447    1.000
    N4545    N        0.88636    0.10131    0.59171    1.000
    Si4546   Si       0.96084    0.10371    0.54335    1.000
    Si4547   Si       0.92623    0.09587    0.61103    1.000
    N4548    N        0.94025    0.07561    0.57009    1.000
    N4549    N        0.98729    0.08718    0.51361    1.000
    Si4550   Si       0.89771    0.07192    0.55947    1.000
    N4551    N        0.98503    0.12063    0.73978    1.000
    N4552    N        0.83865    0.11752    0.65068    1.000
    Si4553   Si       0.78431    0.10322    0.74398    1.000
    Si4554   Si       0.84585    0.12421    0.69461    1.000
    Si4555   Si       0.90493    0.06787    0.68574    1.000
    Si4556   Si       0.89836    0.11450    0.73470    1.000
    N4557    N        0.94796    0.07537    0.69440    1.000
    N4558    N        0.97212    0.07168    0.62345    1.000
    Si4559   Si       0.96031    0.08416    0.73417    1.000
    Si4560   Si       0.86434    0.09089    0.62834    1.000
    N4561    N        0.90403    0.08140    0.64611    1.000
    N4562    N        0.87486    0.09307    0.70622    1.000
    N4563    N        0.81446    0.08827    0.77003    1.000
    Si4564   Si       0.79719    0.11654    0.84060    1.000
    Si4565   Si       0.84228    0.11659    0.78907    1.000
    N4566    N        0.79229    0.07415    0.83402    1.000
    N4567    N        0.85856    0.10011    0.82615    1.000
    N4568    N        0.75175    0.11918    0.77095    1.000
    N4569    N        0.92548    0.09252    0.75885    1.000
    Si4570   Si       0.92616    0.08951    0.80268    1.000
    N4571    N        0.96946    0.08612    0.81100    1.000
    Si4572   Si       0.88663    0.12052    0.85184    1.000
    Si4573   Si       0.98865    0.10940    0.84120    1.000
    Si4574   Si       0.78766    0.11155    0.91171    1.000
    Si4575   Si       0.82977    0.08092    0.96947    1.000
    N4576    N        0.81185    0.11372    0.94655    1.000
    N4577    N        0.77786    0.06951    0.90470    1.000
    N4578    N        0.81255    0.12520    0.87871    1.000
    N4579    N        0.97116    0.11102    0.88236    1.000
    Si4580   Si       0.93690    0.10763    0.90850    1.000
    N4581    N        0.90078    0.09765    0.88661    1.000
    N4582    N        0.92823    0.08637    0.94444    1.000
    Si4583   Si       0.95114    0.11499    0.97342    1.000
    Si4584   Si       0.89268    0.09917    0.96554    1.000
    N4585    N        0.86549    0.06662    0.94289    1.000
    N4586    N        0.97834    0.08773    0.99224    1.000
    Si4587   Si       0.81889    0.14436    0.06554    1.000
    N4588    N        0.79256    0.16509    0.03950    1.000
    N4589    N        0.81562    0.15855    0.10731    1.000
    Si4590   Si       0.75169    0.15287    0.02603    1.000
    N4591    N        0.74801    0.18131    0.10947    1.000
    N4592    N        0.86268    0.14373    0.05353    1.000
    Si4593   Si       0.95260    0.15307    0.07594    1.000
    N4594    N        0.92193    0.16874    0.04768    1.000
    N4595    N        0.94769    0.13133    0.11508    1.000
    Si4596   Si       0.93589    0.18335    0.00685    1.000
    Si4597   Si       0.73863    0.15014    0.19069    1.000
    Si4598   Si       0.84974    0.14608    0.13250    1.000
    N4599    N        0.79744    0.15224    0.23181    1.000
    N4600    N        0.77356    0.14566    0.16409    1.000
    N4601    N        0.83552    0.16271    0.17042    1.000
    Si4602   Si       0.80778    0.13449    0.19212    1.000
    Si4603   Si       0.78381    0.17637    0.13313    1.000
    N4604    N        0.89713    0.18034    0.23813    1.000
    Si4605   Si       0.91957    0.13952    0.14771    1.000
    N4606    N        0.97101    0.18054    0.23202    1.000
    N4607    N        0.88788    0.16556    0.12944    1.000
    N4608    N        0.93580    0.16141    0.18148    1.000
    Si4609   Si       0.96883    0.13649    0.19822    1.000
    Si4610   Si       0.88297    0.18200    0.05816    1.000
    N4611    N        0.81569    0.16075    0.30392    1.000
    Si4612   Si       0.85689    0.14028    0.30811    1.000
    Si4613   Si       0.80522    0.17275    0.34190    1.000
    N4614    N        0.76852    0.16160    0.36256    1.000
    N4615    N        0.84404    0.16850    0.36062    1.000
    Si4616   Si       0.80380    0.13316    0.26938    1.000
    N4617    N        0.88540    0.17361    0.30596    1.000
    Si4618   Si       0.91794    0.18570    0.48821    1.000
    N4619    N        0.98018    0.12746    0.28177    1.000
    N4620    N        0.83224    0.18375    0.48562    1.000
    Si4621   Si       0.84508    0.15129    0.39969    1.000
    Si4622   Si       0.77183    0.15109    0.40378    1.000
    N4623    N        0.80914    0.16179    0.42201    1.000
    Si4624   Si       0.85569    0.15048    0.47012    1.000
    N4625    N        0.76011    0.12653    0.47532    1.000
    N4626    N        0.87682    0.15248    0.43012    1.000
    N4627    N        0.97924    0.14920    0.39974    1.000
    Si4628   Si       0.93745    0.14406    0.37954    1.000
    N4629    N        0.89155    0.14969    0.49040    1.000
    N4630    N        0.95549    0.18080    0.46945    1.000
    N4631    N        0.91089    0.17782    0.38042    1.000
    Si4632   Si       0.98045    0.15679    0.44363    1.000
    N4633    N        0.78614    0.15173    0.53946    1.000
    Si4634   Si       0.75836    0.15738    0.50553    1.000
    N4635    N        0.80686    0.16724    0.61174    1.000
    Si4636   Si       0.82529    0.17275    0.52728    1.000
    N4637    N        0.85584    0.15223    0.54702    1.000
    Si4638   Si       0.78887    0.17974    0.57418    1.000
    N4639    N        0.98720    0.18447    0.71549    1.000
    Si4640   Si       0.89133    0.13329    0.53186    1.000
    N4641    N        0.93447    0.13663    0.54174    1.000
    N4642    N        0.95329    0.13204    0.61248    1.000
    Si4643   Si       0.94908    0.17668    0.54827    1.000
    N4644    N        0.77265    0.13111    0.65705    1.000
    N4645    N        0.74290    0.17290    0.70206    1.000
    Si4646   Si       0.78092    0.15651    0.69164    1.000
    N4647    N        0.80772    0.12892    0.71555    1.000
    Si4648   Si       0.80335    0.12804    0.62833    1.000
    Si4649   Si       0.95588    0.17562    0.62164    1.000
    N4650    N        0.92664    0.14561    0.71796    1.000
    Si4651   Si       0.96264    0.15689    0.73573    1.000
    Si4652   Si       0.87290    0.17408    0.74383    1.000
    N4653    N        0.87121    0.16138    0.69836    1.000
    N4654    N        0.92671    0.18066    0.65333    1.000
    Si4655   Si       0.91074    0.17673    0.69085    1.000
    N4656    N        0.81449    0.14358    0.80890    1.000
    Si4657   Si       0.74682    0.14609    0.80460    1.000
    N4658    N        0.75793    0.13438    0.84635    1.000
    N4659    N        0.87061    0.13342    0.75919    1.000
    Si4660   Si       0.92298    0.16904    0.80386    1.000
    N4661    N        0.95570    0.16835    0.77753    1.000
    N4662    N        0.87420    0.16052    0.86487    1.000
    N4663    N        0.91614    0.12880    0.81965    1.000
    Si4664   Si       0.74307    0.15663    0.88285    1.000
    Si4665   Si       0.84008    0.14756    0.95121    1.000
    Si4666   Si       0.83356    0.16304    0.87976    1.000
    N4667    N        0.83297    0.17589    0.98383    1.000
    N4668    N        0.75092    0.13380    0.91828    1.000
    N4669    N        0.75758    0.16844    0.98630    1.000
    N4670    N        0.83243    0.17803    0.92082    1.000
    Si4671   Si       0.91273    0.16689    0.93860    1.000
    N4672    N        0.94847    0.14100    0.93490    1.000
    N4673    N        0.96423    0.15543    0.99097    1.000
    N4674    N        0.88100    0.13647    0.94573    1.000
    N4675    N        0.76447    0.18503    0.79859    1.000
    N4676    N        0.90774    0.18644    0.97489    1.000
    N4677    N        0.78620    0.23017    0.01709    1.000
    Si4678   Si       0.79521    0.18841    0.00095    1.000
    N4679    N        0.87263    0.21112    0.02535    1.000
    N4680    N        0.88256    0.22020    0.08505    1.000
    Si4681   Si       0.95936    0.22514    0.09948    1.000
    N4682    N        0.95583    0.22243    0.00352    1.000
    N4683    N        0.97661    0.19005    0.07847    1.000
    Si4684   Si       0.93061    0.18690    0.21467    1.000
    N4685    N        0.81590    0.21976    0.20830    1.000
    Si4686   Si       0.82984    0.20647    0.17090    1.000
    N4687    N        0.79715    0.21658    0.14258    1.000
    Si4688   Si       0.78500    0.19460    0.22688    1.000
    N4689    N        0.74658    0.19063    0.20524    1.000
    N4690    N        0.86624    0.22627    0.15723    1.000
    Si4691   Si       0.98375    0.22020    0.20479    1.000
    N4692    N        0.93882    0.22976    0.20504    1.000
    N4693    N        0.93041    0.22334    0.13303    1.000
    Si4694   Si       0.89078    0.20920    0.12561    1.000
    N4695    N        0.84587    0.21934    0.27263    1.000
    N4696    N        0.77946    0.21247    0.26628    1.000
    N4697    N        0.79166    0.21547    0.33285    1.000
    Si4698   Si       0.81130    0.20610    0.29325    1.000
    Si4699   Si       0.74392    0.23226    0.28180    1.000
    Si4700   Si       0.74960    0.20539    0.34077    1.000
    Si4701   Si       0.88639    0.20104    0.27286    1.000
    N4702    N        0.89507    0.22692    0.34633    1.000
    N4703    N        0.91474    0.23411    0.26995    1.000
    Si4704   Si       0.88250    0.18441    0.34703    1.000
    N4705    N        0.97135    0.21497    0.36690    1.000
    N4706    N        0.77906    0.22181    0.42745    1.000
    Si4707   Si       0.81517    0.19875    0.44457    1.000
    Si4708   Si       0.85567    0.22203    0.48698    1.000
    N4709    N        0.85017    0.21044    0.41600    1.000
    N4710    N        0.75570    0.19653    0.48823    1.000
    N4711    N        0.82296    0.23992    0.46541    1.000
    N4712    N        0.89192    0.21195    0.46566    1.000
    Si4713   Si       0.89080    0.19392    0.41947    1.000
    Si4714   Si       0.92888    0.21995    0.37385    1.000
    N4715    N        0.91897    0.23134    0.41309    1.000
    Si4716   Si       0.99007    0.19398    0.49104    1.000
    N4717    N        0.81867    0.20936    0.55500    1.000
    N4718    N        0.91902    0.19984    0.52874    1.000
    N4719    N        0.95894    0.20022    0.58374    1.000
    Si4720   Si       0.90510    0.23844    0.53870    1.000
    N4721    N        0.91075    0.21445    0.71218    1.000
    N4722    N        0.83852    0.22985    0.62052    1.000
    N4723    N        0.78148    0.22716    0.72946    1.000
    N4724    N        0.85093    0.21103    0.73993    1.000
    Si4725   Si       0.81108    0.19960    0.63951    1.000
    N4726    N        0.77064    0.21618    0.64023    1.000
    Si4727   Si       0.81972    0.21823    0.71032    1.000
    Si4728   Si       0.73995    0.21454    0.71684    1.000
    N4729    N        0.81168    0.18728    0.68128    1.000
    N4730    N        0.96768    0.23947    0.67964    1.000
    Si4731   Si       0.94315    0.24518    0.71344    1.000
    Si4732   Si       0.84219    0.23972    0.57672    1.000
    N4733    N        0.74686    0.18229    0.58374    1.000
    N4734    N        0.83304    0.21964    0.80497    1.000
    Si4735   Si       0.83253    0.23245    0.85079    1.000
    N4736    N        0.81347    0.19314    0.85616    1.000
    Si4737   Si       0.80502    0.18615    0.81352    1.000
    Si4738   Si       0.95551    0.21961    0.90600    1.000
    Si4739   Si       0.86816    0.22491    0.78090    1.000
    N4740    N        0.87695    0.23273    0.85546    1.000
    Si4741   Si       0.95716    0.23174    0.83026    1.000
    N4742    N        0.93262    0.19568    0.83951    1.000
    Si4743   Si       0.89817    0.19702    0.86616    1.000
    N4744    N        0.89403    0.19053    0.78041    1.000
    N4745    N        0.98954    0.21826    0.80492    1.000
    N4746    N        0.97117    0.24233    0.87087    1.000
    Si4747   Si       0.82541    0.22077    0.93185    1.000
    N4748    N        0.78829    0.23364    0.94934    1.000
    N4749    N        0.75306    0.19761    0.89515    1.000
    Si4750   Si       0.75507    0.23193    0.91943    1.000
    N4751    N        0.85598    0.23208    0.95945    1.000
    N4752    N        0.82788    0.24552    0.89616    1.000
    N4753    N        0.98772    0.19551    0.92091    1.000
    N4754    N        0.91731    0.19748    0.90552    1.000
    Si4755   Si       0.86769    0.19935    0.98493    1.000
    N4756    N        0.83302    0.26084    0.05687    1.000
    Si4757   Si       0.79015    0.25700    0.05120    1.000
    Si4758   Si       0.84849    0.29491    0.08044    1.000
    Si4759   Si       0.74771    0.29247    0.08641    1.000
    N4760    N        0.76762    0.24388    0.08852    1.000
    N4761    N        0.77779    0.29947    0.05472    1.000
    N4762    N        0.82762    0.28217    0.11716    1.000
    N4763    N        0.88961    0.28739    0.07124    1.000
    N4764    N        0.95411    0.25770    0.07163    1.000
    N4765    N        0.88084    0.27461    0.00915    1.000
    Si4766   Si       0.93087    0.29724    0.07626    1.000
    Si4767   Si       0.87314    0.25007    0.04822    1.000
    Si4768   Si       0.79066    0.25583    0.12268    1.000
    N4769    N        0.76421    0.29012    0.13072    1.000
    N4770    N        0.84189    0.29732    0.18144    1.000
    Si4771   Si       0.83770    0.24402    0.23693    1.000
    N4772    N        0.76955    0.30211    0.20339    1.000
    N4773    N        0.98177    0.25666    0.17415    1.000
    Si4774   Si       0.86895    0.26472    0.17656    1.000
    Si4775   Si       0.91622    0.25481    0.23137    1.000
    Si4776   Si       0.93873    0.25012    0.16481    1.000
    N4777    N        0.87670    0.25196    0.21722    1.000
    N4778    N        0.90659    0.27949    0.16341    1.000
    Si4779   Si       0.79736    0.25767    0.34674    1.000
    N4780    N        0.79831    0.28473    0.31089    1.000
    Si4781   Si       0.83251    0.29925    0.28680    1.000
    N4782    N        0.83596    0.25579    0.36790    1.000
    N4783    N        0.74070    0.27370    0.26965    1.000
    N4784    N        0.76747    0.27773    0.37068    1.000
    N4785    N        0.86847    0.27972    0.30445    1.000
    Si4786   Si       0.87192    0.26457    0.34427    1.000
    Si4787   Si       0.97710    0.28962    0.29692    1.000
    Si4788   Si       0.90845    0.27377    0.28797    1.000
    N4789    N        0.93892    0.28304    0.31713    1.000
    N4790    N        0.92144    0.29572    0.25052    1.000
    N4791    N        0.98310    0.27660    0.25552    1.000
    Si4792   Si       0.99073    0.25254    0.36040    1.000
    N4793    N        0.89507    0.29198    0.36726    1.000
    N4794    N        0.77145    0.28114    0.48849    1.000
    Si4795   Si       0.83738    0.25240    0.41212    1.000
    N4796    N        0.80812    0.28443    0.42355    1.000
    Si4797   Si       0.78452    0.25858    0.45286    1.000
    N4798    N        0.74232    0.29946    0.43114    1.000
    N4799    N        0.96337    0.27791    0.38223    1.000
    Si4800   Si       0.95878    0.28485    0.42659    1.000
    N4801    N        0.94087    0.26735    0.46288    1.000
    Si4802   Si       0.90437    0.25179    0.44872    1.000
    N4803    N        0.87207    0.27480    0.43207    1.000
    N4804    N        0.82274    0.28448    0.24689    1.000
    N4805    N        0.82538    0.27650    0.55692    1.000
    Si4806   Si       0.85015    0.28821    0.52234    1.000
    Si4807   Si       0.78612    0.29535    0.56324    1.000
    N4808    N        0.74562    0.28250    0.55692    1.000
    N4809    N        0.96008    0.30339    0.65986    1.000
    N4810    N        0.87166    0.25007    0.51373    1.000
    N4811    N        0.94593    0.25776    0.53664    1.000
    N4812    N        0.95406    0.26401    0.60508    1.000
    Si4813   Si       0.91141    0.27490    0.60118    1.000
    N4814    N        0.88748    0.24745    0.57782    1.000
    Si4815   Si       0.96509    0.27071    0.50105    1.000
    N4816    N        0.77815    0.28858    0.66976    1.000
    Si4817   Si       0.75583    0.25317    0.65500    1.000
    Si4818   Si       0.85654    0.25992    0.64774    1.000
    N4819    N        0.75164    0.28905    0.74045    1.000
    N4820    N        0.84914    0.25004    0.68954    1.000
    N4821    N        0.84380    0.29977    0.63556    1.000
    N4822    N        0.91366    0.27718    0.70762    1.000
    Si4823   Si       0.97360    0.26585    0.64354    1.000
    Si4824   Si       0.91901    0.29868    0.67171    1.000
    N4825    N        0.90045    0.27033    0.64440    1.000
    Si4826   Si       0.87865    0.24674    0.71937    1.000
    Si4827   Si       0.96917    0.24142    0.57139    1.000
    N4828    N        0.80247    0.26906    0.84192    1.000
    N4829    N        0.81658    0.28180    0.76965    1.000
    Si4830   Si       0.78856    0.28920    0.80675    1.000
    Si4831   Si       0.78104    0.26181    0.75520    1.000
    Si4832   Si       0.85838    0.29407    0.77941    1.000
    N4833    N        0.76242    0.25360    0.79354    1.000
    N4834    N        0.86813    0.29072    0.82174    1.000
    Si4835   Si       0.92431    0.27370    0.77227    1.000
    Si4836   Si       0.89715    0.27004    0.84425    1.000
    N4837    N        0.92934    0.26106    0.81520    1.000
    N4838    N        0.88360    0.26180    0.76261    1.000
    N4839    N        0.95559    0.25062    0.75295    1.000
    N4840    N        0.81915    0.28982    0.97612    1.000
    Si4841   Si       0.80259    0.27973    0.88633    1.000
    N4842    N        0.76085    0.27088    0.89681    1.000
    Si4843   Si       0.78545    0.26122    0.98164    1.000
    N4844    N        0.75064    0.28594    0.98686    1.000
    Si4845   Si       0.85977    0.27503    0.97236    1.000
    Si4846   Si       0.94725    0.25175    0.97283    1.000
    N4847    N        0.93879    0.29306    0.98859    1.000
    N4848    N        0.88164    0.29351    0.93906    1.000
    N4849    N        0.93959    0.25237    0.93111    1.000
    N4850    N        0.91111    0.29601    0.87596    1.000
    Si4851   Si       0.92193    0.29115    0.91956    1.000
    N4852    N        0.83301    0.33362    0.06805    1.000
    Si4853   Si       0.79469    0.33925    0.04668    1.000
    N4854    N        0.79988    0.35392    0.00619    1.000
    N4855    N        0.93554    0.32650    0.04462    1.000
    Si4856   Si       0.98087    0.33411    0.04173    1.000
    N4857    N        0.93659    0.31382    0.11466    1.000
    Si4858   Si       0.97742    0.32915    0.11494    1.000
    N4859    N        0.89081    0.34531    0.00303    1.000
    Si4860   Si       0.90882    0.30640    0.01292    1.000
    Si4861   Si       0.83206    0.31552    0.14280    1.000
    N4862    N        0.80475    0.35206    0.21862    1.000
    Si4863   Si       0.76311    0.32343    0.16015    1.000
    N4864    N        0.80024    0.34351    0.15129    1.000
    Si4865   Si       0.81178    0.30946    0.21228    1.000
    Si4866   Si       0.75491    0.34395    0.22813    1.000
    N4867    N        0.93052    0.36145    0.23641    1.000
    N4868    N        0.91588    0.35611    0.16349    1.000
    N4869    N        0.86749    0.33349    0.12455    1.000
    Si4870   Si       0.90538    0.31907    0.14403    1.000
    N4871    N        0.96775    0.32360    0.20249    1.000
    Si4872   Si       0.94442    0.35943    0.19427    1.000
    Si4873   Si       0.85639    0.36317    0.09131    1.000
    Si4874   Si       0.95438    0.32035    0.24437    1.000
    N4875    N        0.83973    0.34205    0.28772    1.000
    N4876    N        0.77334    0.33515    0.27028    1.000
    N4877    N        0.85122    0.35285    0.35312    1.000
    Si4878   Si       0.76070    0.30405    0.29617    1.000
    N4879    N        0.97177    0.32955    0.28623    1.000
    N4880    N        0.95409    0.34087    0.34749    1.000
    Si4881   Si       0.94685    0.35843    0.30829    1.000
    Si4882   Si       0.93605    0.30195    0.35605    1.000
    Si4883   Si       0.77527    0.30442    0.40437    1.000
    N4884    N        0.78788    0.34647    0.39367    1.000
    N4885    N        0.83137    0.30836    0.48800    1.000
    N4886    N        0.77032    0.35275    0.47458    1.000
    N4887    N        0.85649    0.33364    0.41912    1.000
    Si4888   Si       0.84085    0.30378    0.44679    1.000
    Si4889   Si       0.98938    0.35270    0.36831    1.000
    N4890    N        0.92883    0.31794    0.41821    1.000
    Si4891   Si       0.88875    0.30772    0.40611    1.000
    Si4892   Si       0.80889    0.35974    0.26158    1.000
    Si4893   Si       0.79088    0.32104    0.49643    1.000
    N4894    N        0.79109    0.33072    0.53812    1.000
    N4895    N        0.78328    0.31153    0.60215    1.000
    Si4896   Si       0.98470    0.33715    0.64683    1.000
    N4897    N        0.98464    0.34101    0.60372    1.000
    N4898    N        0.94357    0.35288    0.54681    1.000
    N4899    N        0.90137    0.31715    0.59512    1.000
    Si4900   Si       0.90208    0.33974    0.55835    1.000
    Si4901   Si       0.96513    0.34729    0.50832    1.000
    N4902    N        0.88455    0.31565    0.52757    1.000
    N4903    N        0.98385    0.30947    0.50207    1.000
    N4904    N        0.80429    0.35251    0.65486    1.000
    N4905    N        0.78262    0.34403    0.71581    1.000
    Si4906   Si       0.75748    0.30890    0.70142    1.000
    Si4907   Si       0.80079    0.31278    0.64120    1.000
    N4908    N        0.89578    0.33588    0.66561    1.000
    Si4909   Si       0.87536    0.32877    0.62871    1.000
    N4910    N        0.80912    0.32881    0.82077    1.000
    Si4911   Si       0.84476    0.32006    0.84557    1.000
    N4912    N        0.74636    0.31130    0.80470    1.000
    N4913    N        0.87170    0.33343    0.76899    1.000
    N4914    N        0.87188    0.35286    0.84793    1.000
    N4915    N        0.93712    0.31622    0.77032    1.000
    Si4916   Si       0.91160    0.35085    0.76196    1.000
    Si4917   Si       0.98076    0.32555    0.76813    1.000
    Si4918   Si       0.90866    0.33793    0.86614    1.000
    N4919    N        0.94288    0.35967    0.85104    1.000
    Si4920   Si       0.80825    0.33086    0.97091    1.000
    N4921    N        0.77848    0.33220    0.93938    1.000
    N4922    N        0.84569    0.34771    0.94807    1.000
    Si4923   Si       0.74882    0.35322    0.91647    1.000
    N4924    N        0.83377    0.31200    0.88645    1.000
    Si4925   Si       0.86185    0.32452    0.91643    1.000
    Si4926   Si       0.97549    0.30504    0.96989    1.000
    N4927    N        0.89724    0.35143    0.90691    1.000
    N4928    N        0.95890    0.31467    0.92980    1.000
    N4929    N        0.73889    0.33554    0.87783    1.000
    N4930    N        0.82576    0.39318    0.09949    1.000
    Si4931   Si       0.79115    0.40480    0.07899    1.000
    Si4932   Si       0.80846    0.39750    0.00506    1.000
    N4933    N        0.77039    0.37000    0.06814    1.000
    N4934    N        0.88519    0.40865    0.12236    1.000
    N4935    N        0.94038    0.39016    0.01423    1.000
    N4936    N        0.89243    0.37763    0.06788    1.000
    Si4937   Si       0.96820    0.40748    0.04288    1.000
    Si4938   Si       0.90174    0.41706    0.08145    1.000
    Si4939   Si       0.91426    0.36230    0.03410    1.000
    Si4940   Si       0.88752    0.38840    0.15900    1.000
    N4941    N        0.78274    0.41421    0.17846    1.000
    Si4942   Si       0.80548    0.37594    0.18072    1.000
    N4943    N        0.84960    0.38634    0.17912    1.000
    N4944    N        0.74345    0.38579    0.23618    1.000
    Si4945   Si       0.98017    0.41068    0.15330    1.000
    N4946    N        0.96631    0.39572    0.19243    1.000
    N4947    N        0.97988    0.37267    0.12465    1.000
    Si4948   Si       0.86321    0.41804    0.20881    1.000
    N4949    N        0.80386    0.40116    0.26905    1.000
    N4950    N        0.77985    0.41061    0.36298    1.000
    Si4951   Si       0.76322    0.41256    0.26185    1.000
    Si4952   Si       0.74274    0.41158    0.33936    1.000
    N4953    N        0.85801    0.40775    0.31238    1.000
    N4954    N        0.74012    0.41911    0.29731    1.000
    Si4955   Si       0.86505    0.36539    0.31342    1.000
    Si4956   Si       0.90989    0.39041    0.26148    1.000
    N4957    N        0.97419    0.39001    0.29431    1.000
    N4958    N        0.90672    0.36794    0.29793    1.000
    N4959    N        0.87024    0.40258    0.24846    1.000
    Si4960   Si       0.98477    0.41779    0.48527    1.000
    Si4961   Si       0.76221    0.37990    0.39083    1.000
    N4962    N        0.74867    0.40680    0.42095    1.000
    N4963    N        0.83929    0.40378    0.39829    1.000
    Si4964   Si       0.76671    0.39499    0.48801    1.000
    Si4965   Si       0.83363    0.35752    0.39192    1.000
    N4966    N        0.87866    0.39761    0.49352    1.000
    N4967    N        0.90992    0.38989    0.43054    1.000
    N4968    N        0.97912    0.36431    0.40984    1.000
    Si4969   Si       0.91522    0.39304    0.47373    1.000
    Si4970   Si       0.88030    0.41497    0.41029    1.000
    Si4971   Si       0.94039    0.35776    0.43030    1.000
    N4972    N        0.94046    0.35717    0.47387    1.000
    N4973    N        0.80028    0.38448    0.58406    1.000
    N4974    N        0.77161    0.39682    0.53079    1.000
    Si4975   Si       0.77345    0.36291    0.55817    1.000
    N4976    N        0.88179    0.38057    0.56052    1.000
    Si4977   Si       0.88725    0.39641    0.59988    1.000
    N4978    N        0.92870    0.38760    0.60713    1.000
    Si4979   Si       0.96148    0.37201    0.58205    1.000
    Si4980   Si       0.86992    0.41036    0.53383    1.000
    N4981    N        0.86029    0.37056    0.62174    1.000
    N4982    N        0.73847    0.39838    0.68773    1.000
    Si4983   Si       0.81729    0.37920    0.62354    1.000
    Si4984   Si       0.76312    0.38286    0.71867    1.000
    N4985    N        0.80078    0.40363    0.70961    1.000
    N4986    N        0.81002    0.41712    0.63983    1.000
    Si4987   Si       0.81483    0.36373    0.69366    1.000
    N4988    N        0.85220    0.36183    0.71103    1.000
    Si4989   Si       0.96309    0.36396    0.70952    1.000
    N4990    N        0.89622    0.40736    0.66820    1.000
    N4991    N        0.96148    0.36921    0.66555    1.000
    N4992    N        0.97857    0.40226    0.72247    1.000
    Si4993   Si       0.88901    0.37055    0.69049    1.000
    Si4994   Si       0.93497    0.39900    0.64834    1.000
    N4995    N        0.92126    0.36388    0.72132    1.000
    Si4996   Si       0.79362    0.42112    0.56019    1.000
    N4997    N        0.75352    0.37813    0.82483    1.000
    N4998    N        0.81379    0.39288    0.84905    1.000
    N4999    N        0.81167    0.38059    0.77337    1.000
    Si5000   Si       0.79653    0.37064    0.81315    1.000
    Si5001   Si       0.85617    0.39336    0.85307    1.000
    Si5002   Si       0.81956    0.41638    0.74739    1.000
    Si5003   Si       0.84924    0.36719    0.75570    1.000
    N5004    N        0.86354    0.40923    0.75821    1.000
    Si5005   Si       0.95691    0.37913    0.81387    1.000
    N5006    N        0.91932    0.38259    0.79350    1.000
    N5007    N        0.98045    0.40833    0.84077    1.000
    Si5008   Si       0.89365    0.41868    0.78918    1.000
    N5009    N        0.98455    0.36392    0.78446    1.000
    Si5010   Si       0.79006    0.41523    0.87843    1.000
    N5011    N        0.76940    0.39137    0.90934    1.000
    Si5012   Si       0.75621    0.40589    0.94620    1.000
    N5013    N        0.78301    0.41652    0.97774    1.000
    N5014    N        0.85007    0.40243    0.99370    1.000
    N5015    N        0.90128    0.39487    0.95546    1.000
    N5016    N        0.94063    0.41045    0.90143    1.000
    Si5017   Si       0.93538    0.41127    0.97655    1.000
    Si5018   Si       0.87151    0.36964    0.97531    1.000
    Si5019   Si       0.90460    0.39264    0.91227    1.000
    N5020    N        0.87308    0.41016    0.88971    1.000
    Si5021   Si       0.96807    0.38757    0.87560    1.000
    Si5022   Si       0.83457    0.45534    0.04354    1.000
    N5023    N        0.76785    0.43377    0.10360    1.000
    Si5024   Si       0.84782    0.42828    0.11158    1.000
    N5025    N        0.85402    0.46602    0.00687    1.000
    N5026    N        0.80646    0.42302    0.04195    1.000
    N5027    N        0.86225    0.44152    0.07384    1.000
    Si5028   Si       0.96005    0.46095    0.09607    1.000
    N5029    N        0.94287    0.42795    0.07175    1.000
    N5030    N        0.76785    0.47400    0.16401    1.000
    N5031    N        0.82707    0.45196    0.13955    1.000
    N5032    N        0.84197    0.45815    0.20642    1.000
    Si5033   Si       0.75893    0.44671    0.19839    1.000
    Si5034   Si       0.78613    0.44116    0.14293    1.000
    N5035    N        0.76182    0.45263    0.24070    1.000
    Si5036   Si       0.85012    0.47566    0.16634    1.000
    N5037    N        0.90152    0.42075    0.18778    1.000
    Si5038   Si       0.92439    0.45207    0.16411    1.000
    N5039    N        0.94832    0.46723    0.19586    1.000
    N5040    N        0.95634    0.44159    0.13493    1.000
    Si5041   Si       0.95681    0.43156    0.22102    1.000
    N5042    N        0.89137    0.47709    0.14965    1.000
    N5043    N        0.83187    0.45736    0.34806    1.000
    N5044    N        0.83656    0.46328    0.27537    1.000
    Si5045   Si       0.84127    0.41951    0.27599    1.000
    N5046    N        0.89472    0.47031    0.31378    1.000
    Si5047   Si       0.87040    0.43985    0.33735    1.000
    Si5048   Si       0.97340    0.46292    0.34618    1.000
    N5049    N        0.96322    0.45791    0.30602    1.000
    Si5050   Si       0.92600    0.46223    0.28310    1.000
    N5051    N        0.93027    0.42785    0.25649    1.000
    Si5052   Si       0.81378    0.43411    0.37864    1.000
    Si5053   Si       0.76796    0.44171    0.43765    1.000
    N5054    N        0.79457    0.46038    0.40877    1.000
    N5055    N        0.79219    0.42618    0.47058    1.000
    N5056    N        0.84980    0.47346    0.48947    1.000
    Si5057   Si       0.98764    0.42981    0.28326    1.000
    N5058    N        0.94259    0.42113    0.49447    1.000
    N5059    N        0.94369    0.47671    0.37499    1.000
    N5060    N        0.88514    0.45468    0.43022    1.000
    Si5061   Si       0.90343    0.47049    0.39044    1.000
    N5062    N        0.89332    0.43209    0.37162    1.000
    N5063    N        0.76989    0.44891    0.58285    1.000
    N5064    N        0.82862    0.42815    0.53723    1.000
    Si5065   Si       0.81797    0.44669    0.49941    1.000
    Si5066   Si       0.87383    0.44386    0.65549    1.000
    N5067    N        0.87695    0.43826    0.60911    1.000
    Si5068   Si       0.92891    0.45818    0.51638    1.000
    N5069    N        0.89591    0.44452    0.54318    1.000
    Si5070   Si       0.88223    0.46980    0.57731    1.000
    N5071    N        0.83891    0.45828    0.67904    1.000
    N5072    N        0.76625    0.45969    0.67813    1.000
    Si5073   Si       0.80171    0.43693    0.67810    1.000
    N5074    N        0.96012    0.43421    0.65593    1.000
    N5075    N        0.94965    0.46492    0.72067    1.000
    Si5076   Si       0.97990    0.47177    0.64522    1.000
    Si5077   Si       0.97525    0.43689    0.69779    1.000
    N5078    N        0.95664    0.47930    0.54289    1.000
    Si5079   Si       0.84617    0.46477    0.83140    1.000
    Si5080   Si       0.75089    0.43957    0.75954    1.000
    N5081    N        0.75668    0.43858    0.86182    1.000
    Si5082   Si       0.76586    0.46971    0.82246    1.000
    N5083    N        0.79201    0.44683    0.76222    1.000
    N5084    N        0.86753    0.45621    0.94253    1.000
    N5085    N        0.74133    0.44177    0.80180    1.000
    N5086    N        0.97203    0.42857    0.95887    1.000
    N5087    N        0.86816    0.42482    0.82498    1.000
    N5088    N        0.91390    0.45730    0.78157    1.000
    Si5089   Si       0.95191    0.46493    0.76258    1.000
    N5090    N        0.97800    0.43494    0.78030    1.000
    N5091    N        0.97452    0.47895    0.84004    1.000
    N5092    N        0.86266    0.47763    0.87146    1.000
    N5093    N        0.81450    0.44382    0.90200    1.000
    Si5094   Si       0.85687    0.44719    0.90251    1.000
    Si5095   Si       0.74908    0.44362    0.99163    1.000
    N5096    N        0.93129    0.47862    0.91607    1.000
    N5097    N        0.91610    0.44874    0.98374    1.000
    Si5098   Si       0.87381    0.43665    0.98155    1.000
    Si5099   Si       0.96184    0.44776    0.92024    1.000
    N5100    N        0.81000    0.49237    0.04646    1.000
    Si5101   Si       0.78807    0.50726    0.01114    1.000
    Si5102   Si       0.83177    0.52656    0.06021    1.000
    N5103    N        0.85618    0.51493    0.09637    1.000
    N5104    N        0.75180    0.48287    0.00953    1.000
    N5105    N        0.85189    0.53790    0.02294    1.000
    N5106    N        0.92173    0.53764    0.20687    1.000
    N5107    N        0.92664    0.48866    0.09246    1.000
    Si5108   Si       0.89531    0.50558    0.11517    1.000
    N5109    N        0.78937    0.53219    0.12418    1.000
    N5110    N        0.83972    0.51763    0.16702    1.000
    Si5111   Si       0.75351    0.50958    0.14127    1.000
    N5112    N        0.85473    0.52227    0.23116    1.000
    Si5113   Si       0.83154    0.48542    0.23713    1.000
    Si5114   Si       0.83271    0.53453    0.12721    1.000
    N5115    N        0.98189    0.53086    0.21793    1.000
    Si5116   Si       0.94995    0.50408    0.22095    1.000
    Si5117   Si       0.89575    0.52776    0.23954    1.000
    Si5118   Si       0.76365    0.51964    0.33550    1.000
    N5119    N        0.85008    0.51555    0.32250    1.000
    N5120    N        0.78225    0.49289    0.30606    1.000
    Si5121   Si       0.76066    0.48797    0.26737    1.000
    Si5122   Si       0.82530    0.48228    0.31227    1.000
    N5123    N        0.92160    0.48533    0.48195    1.000
    N5124    N        0.79314    0.50638    0.24369    1.000
    Si5125   Si       0.89245    0.51049    0.33423    1.000
    N5126    N        0.92326    0.49915    0.25639    1.000
    N5127    N        0.74944    0.50275    0.37354    1.000
    Si5128   Si       0.77019    0.49752    0.41164    1.000
    N5129    N        0.89092    0.50978    0.37922    1.000
    Si5130   Si       0.95738    0.50994    0.46725    1.000
    N5131    N        0.87787    0.52423    0.44838    1.000
    Si5132   Si       0.88204    0.48328    0.46121    1.000
    Si5133   Si       0.96716    0.51059    0.38408    1.000
    N5134    N        0.97104    0.50795    0.42601    1.000
    N5135    N        0.78548    0.53646    0.42200    1.000
    N5136    N        0.74382    0.47823    0.44268    1.000
    N5137    N        0.75403    0.51364    0.56417    1.000
    N5138    N        0.85007    0.49447    0.56001    1.000
    Si5139   Si       0.75794    0.49970    0.52281    1.000
    Si5140   Si       0.83279    0.50053    0.52030    1.000
    Si5141   Si       0.75410    0.48468    0.59665    1.000
    N5142    N        0.79398    0.47974    0.51586    1.000
    N5143    N        0.91280    0.49750    0.59312    1.000
    Si5144   Si       0.95247    0.50394    0.57693    1.000
    N5145    N        0.98176    0.48978    0.60521    1.000
    N5146    N        0.88224    0.48307    0.72858    1.000
    N5147    N        0.77478    0.50827    0.62784    1.000
    N5148    N        0.81500    0.50207    0.73338    1.000
    Si5149   Si       0.75903    0.50239    0.66771    1.000
    Si5150   Si       0.84697    0.49114    0.70367    1.000
    N5151    N        0.84215    0.53047    0.68602    1.000
    N5152    N        0.76996    0.53481    0.69499    1.000
    N5153    N        0.95809    0.50312    0.66451    1.000
    N5154    N        0.89740    0.48197    0.66271    1.000
    Si5155   Si       0.91815    0.48730    0.70139    1.000
    Si5156   Si       0.96161    0.53243    0.69535    1.000
    Si5157   Si       0.90547    0.51529    0.63440    1.000
    N5158    N        0.92427    0.53101    0.71289    1.000
    Si5159   Si       0.84856    0.53227    0.58273    1.000
    N5160    N        0.86383    0.53433    0.62438    1.000
    N5161    N        0.77334    0.50216    0.79185    1.000
    Si5162   Si       0.80777    0.48580    0.77194    1.000
    Si5163   Si       0.76371    0.53636    0.81725    1.000
    N5164    N        0.97005    0.50430    0.77498    1.000
    N5165    N        0.91537    0.51515    0.84061    1.000
    Si5166   Si       0.95418    0.50965    0.81714    1.000
    N5167    N        0.89207    0.52850    0.77714    1.000
    Si5168   Si       0.88364    0.48598    0.77102    1.000
    N5169    N        0.81491    0.51242    0.97514    1.000
    N5170    N        0.82381    0.52054    0.90246    1.000
    N5171    N        0.76283    0.49716    0.90241    1.000
    Si5172   Si       0.85743    0.51904    0.87598    1.000
    Si5173   Si       0.80213    0.48408    0.88735    1.000
    Si5174   Si       0.90575    0.47851    0.95158    1.000
    N5175    N        0.96505    0.52553    0.88463    1.000
    N5176    N        0.88941    0.51280    0.96832    1.000
    N5177    N        0.89359    0.53496    0.89781    1.000
    Si5178   Si       0.92611    0.50789    0.88437    1.000
    N5179    N        0.99332    0.48862    0.98562    1.000
    N5180    N        0.80506    0.47558    0.84342    1.000
    N5181    N        0.84590    0.48110    0.79138    1.000
    Si5182   Si       0.85376    0.50716    0.99146    1.000
    N5183    N        0.81607    0.56640    0.07149    1.000
    Si5184   Si       0.78141    0.57763    0.04565    1.000
    N5185    N        0.75547    0.57535    0.07907    1.000
    N5186    N        0.77837    0.54808    0.01625    1.000
    Si5187   Si       0.84936    0.59166    0.08696    1.000
    Si5188   Si       0.78755    0.57357    0.10852    1.000
    Si5189   Si       0.87170    0.57606    0.02469    1.000
    N5190    N        0.95461    0.57966    0.04153    1.000
    N5191    N        0.88555    0.58495    0.06357    1.000
    N5192    N        0.84148    0.57707    0.12719    1.000
    Si5193   Si       0.75751    0.57246    0.17919    1.000
    N5194    N        0.78918    0.55932    0.20775    1.000
    N5195    N        0.85332    0.58302    0.19814    1.000
    Si5196   Si       0.82986    0.54473    0.20087    1.000
    N5197    N        0.77323    0.59316    0.14498    1.000
    N5198    N        0.96746    0.56181    0.15320    1.000
    Si5199   Si       0.93072    0.57882    0.13942    1.000
    Si5200   Si       0.95788    0.56051    0.19497    1.000
    N5201    N        0.90877    0.54304    0.12859    1.000
    Si5202   Si       0.86954    0.59389    0.23646    1.000
    N5203    N        0.90543    0.57086    0.99873    1.000
    N5204    N        0.78875    0.57330    0.28457    1.000
    Si5205   Si       0.83796    0.55074    0.34267    1.000
    N5206    N        0.85093    0.58420    0.31918    1.000
    Si5207   Si       0.74712    0.57900    0.30026    1.000
    N5208    N        0.79570    0.54484    0.35081    1.000
    Si5209   Si       0.78210    0.54857    0.24985    1.000
    N5210    N        0.91338    0.54724    0.32600    1.000
    N5211    N        0.88934    0.56427    0.26225    1.000
    Si5212   Si       0.89084    0.57840    0.30318    1.000
    Si5213   Si       0.94655    0.57218    0.33908    1.000
    Si5214   Si       0.77125    0.57630    0.43863    1.000
    Si5215   Si       0.80250    0.55940    0.39115    1.000
    N5216    N        0.84620    0.55801    0.38736    1.000
    N5217    N        0.78663    0.59095    0.47488    1.000
    N5218    N        0.90750    0.57147    0.42231    1.000
    N5219    N        0.75830    0.53578    0.49847    1.000
    Si5220   Si       0.96721    0.58689    0.46919    1.000
    N5221    N        0.94400    0.55157    0.47483    1.000
    N5222    N        0.88618    0.58326    0.49379    1.000
    Si5223   Si       0.94280    0.58291    0.39926    1.000
    Si5224   Si       0.90219    0.55586    0.46394    1.000
    N5225    N        0.95943    0.55080    0.37498    1.000
    N5226    N        0.98339    0.59417    0.32808    1.000
    N5227    N        0.73996    0.54068    0.26009    1.000
    Si5228   Si       0.87859    0.54057    0.40766    1.000
    N5229    N        0.81198    0.55325    0.58468    1.000
    N5230    N        0.76717    0.58257    0.54353    1.000
    N5231    N        0.75013    0.56773    0.61198    1.000
    N5232    N        0.82672    0.54255    0.51432    1.000
    Si5233   Si       0.78959    0.56483    0.50872    1.000
    Si5234   Si       0.85696    0.57283    0.52335    1.000
    Si5235   Si       0.74260    0.55512    0.57069    1.000
    Si5236   Si       0.78813    0.54810    0.62094    1.000
    N5237    N        0.97011    0.57496    0.68348    1.000
    N5238    N        0.95306    0.54657    0.56722    1.000
    Si5239   Si       0.96968    0.58543    0.57651    1.000
    N5240    N        0.87742    0.55734    0.56116    1.000
    Si5241   Si       0.91436    0.56137    0.58342    1.000
    N5242    N        0.98273    0.58943    0.61757    1.000
    N5243    N        0.80893    0.57890    0.64613    1.000
    N5244    N        0.81670    0.57528    0.73176    1.000
    Si5245   Si       0.84744    0.56221    0.65627    1.000
    N5246    N        0.88286    0.59007    0.74720    1.000
    N5247    N        0.92463    0.55427    0.62778    1.000
    Si5248   Si       0.95076    0.58399    0.64599    1.000
    Si5249   Si       0.80451    0.59153    0.56736    1.000
    N5250    N        0.86595    0.59611    0.67670    1.000
    Si5251   Si       0.80735    0.53930    0.71155    1.000
    N5252    N        0.79277    0.56404    0.80018    1.000
    N5253    N        0.77835    0.55516    0.85673    1.000
    Si5254   Si       0.81580    0.56845    0.83617    1.000
    Si5255   Si       0.79032    0.58625    0.76346    1.000
    N5256    N        0.74811    0.58672    0.75246    1.000
    N5257    N        0.85110    0.54089    0.83963    1.000
    Si5258   Si       0.74552    0.58770    0.86159    1.000
    N5259    N        0.89258    0.58771    0.81478    1.000
    N5260    N        0.96945    0.54946    0.82343    1.000
    N5261    N        0.94138    0.57492    0.76628    1.000
    Si5262   Si       0.97837    0.57180    0.78991    1.000
    Si5263   Si       0.96935    0.56461    0.86418    1.000
    Si5264   Si       0.88859    0.54323    0.81800    1.000
    Si5265   Si       0.90901    0.55544    0.74504    1.000
    Si5266   Si       0.81795    0.54044    0.94144    1.000
    N5267    N        0.78319    0.56381    0.92981    1.000
    N5268    N        0.84885    0.56920    0.95539    1.000
    Si5269   Si       0.76594    0.54072    0.89642    1.000
    Si5270   Si       0.94630    0.58390    0.99809    1.000
    N5271    N        0.93753    0.59104    0.87476    1.000
    Si5272   Si       0.90348    0.57580    0.89638    1.000
    N5273    N        0.91421    0.58353    0.93767    1.000
    N5274    N        0.98013    0.56456    0.97825    1.000
    Si5275   Si       0.89085    0.55403    0.96020    1.000
    N5276    N        0.83885    0.63192    0.07746    1.000
    N5277    N        0.77436    0.61858    0.03207    1.000
    N5278    N        0.84836    0.60883    0.01111    1.000
    Si5279   Si       0.84369    0.64635    0.03632    1.000
    N5280    N        0.78153    0.65250    0.11381    1.000
    Si5281   Si       0.78326    0.64539    0.99675    1.000
    Si5282   Si       0.92596    0.60196    0.06570    1.000
    N5283    N        0.93917    0.64083    0.05175    1.000
    Si5284   Si       0.98218    0.64196    0.05077    1.000
    N5285    N        0.94276    0.60194    0.10506    1.000
    Si5286   Si       0.76215    0.64091    0.21428    1.000
    Si5287   Si       0.76126    0.63611    0.14869    1.000
    N5288    N        0.84221    0.63982    0.14850    1.000
    N5289    N        0.73893    0.60862    0.19379    1.000
    Si5290   Si       0.85725    0.60228    0.15888    1.000
    N5291    N        0.95649    0.60383    0.19958    1.000
    N5292    N        0.90274    0.62012    0.23289    1.000
    N5293    N        0.90130    0.60300    0.16131    1.000
    Si5294   Si       0.91957    0.62724    0.19462    1.000
    Si5295   Si       0.99046    0.62826    0.21051    1.000
    Si5296   Si       0.82384    0.65665    0.11022    1.000
    N5297    N        0.80927    0.63736    0.31829    1.000
    N5298    N        0.84229    0.61406    0.26099    1.000
    Si5299   Si       0.76797    0.64440    0.32918    1.000
    Si5300   Si       0.81871    0.60206    0.29504    1.000
    N5301    N        0.74582    0.60834    0.33284    1.000
    N5302    N        0.91676    0.61346    0.30011    1.000
    Si5303   Si       0.91353    0.63507    0.33783    1.000
    Si5304   Si       0.93088    0.63356    0.26330    1.000
    N5305    N        0.92447    0.60226    0.36469    1.000
    Si5306   Si       0.98697    0.63655    0.34196    1.000
    N5307    N        0.89302    0.64511    0.45628    1.000
    Si5308   Si       0.79567    0.64007    0.40199    1.000
    Si5309   Si       0.78480    0.63465    0.47662    1.000
    N5310    N        0.79156    0.59780    0.40609    1.000
    N5311    N        0.77432    0.65133    0.43836    1.000
    N5312    N        0.82563    0.64610    0.48076    1.000
    Si5313   Si       0.90349    0.62378    0.49349    1.000
    N5314    N        0.94711    0.61744    0.49395    1.000
    N5315    N        0.97172    0.59881    0.42606    1.000
    N5316    N        0.97268    0.64527    0.24657    1.000
    N5317    N        0.80169    0.62412    0.59463    1.000
    N5318    N        0.83101    0.60497    0.53456    1.000
    Si5319   Si       0.83836    0.64672    0.52136    1.000
    N5320    N        0.75113    0.64146    0.50226    1.000
    Si5321   Si       0.96156    0.65335    0.65184    1.000
    Si5322   Si       0.97058    0.63813    0.52246    1.000
    N5323    N        0.92723    0.60335    0.57945    1.000
    Si5324   Si       0.93486    0.64685    0.58450    1.000
    N5325    N        0.76803    0.64571    0.71798    1.000
    Si5326   Si       0.78995    0.61598    0.63609    1.000
    N5327    N        0.84176    0.64141    0.72225    1.000
    N5328    N        0.74791    0.62329    0.64864    1.000
    Si5329   Si       0.85270    0.59928    0.71861    1.000
    Si5330   Si       0.80365    0.65273    0.74114    1.000
    Si5331   Si       0.76010    0.65304    0.67680    1.000
    N5332    N        0.93088    0.62204    0.65651    1.000
    N5333    N        0.97810    0.65107    0.74050    1.000
    N5334    N        0.90616    0.65187    0.71198    1.000
    Si5335   Si       0.89306    0.63136    0.67338    1.000
    N5336    N        0.80115    0.65194    0.65926    1.000
    N5337    N        0.80292    0.62687    0.77560    1.000
    Si5338   Si       0.81629    0.64416    0.81328    1.000
    Si5339   Si       0.75739    0.64952    0.86129    1.000
    N5340    N        0.83092    0.61039    0.83606    1.000
    Si5341   Si       0.87343    0.61514    0.84383    1.000
    N5342    N        0.92891    0.64471    0.77991    1.000
    N5343    N        0.90470    0.64690    0.84539    1.000
    Si5344   Si       0.91151    0.60422    0.77874    1.000
    Si5345   Si       0.97484    0.64547    0.78416    1.000
    N5346    N        0.77045    0.61656    0.88677    1.000
    N5347    N        0.79882    0.62276    0.96244    1.000
    Si5348   Si       0.84013    0.60908    0.96745    1.000
    Si5349   Si       0.77310    0.60731    0.93069    1.000
    N5350    N        0.91818    0.65164    0.91250    1.000
    Si5351   Si       0.91295    0.62508    0.94953    1.000
    N5352    N        0.87439    0.60543    0.88718    1.000
    Si5353   Si       0.93722    0.63406    0.87499    1.000
    N5354    N        0.86990    0.63470    0.94992    1.000
    N5355    N        0.97928    0.64316    0.87424    1.000
    Si5356   Si       0.87251    0.64413    0.90712    1.000
    N5357    N        0.94277    0.62440    0.97980    1.000
    N5358    N        0.73771    0.65247    0.77507    1.000
    N5359    N        0.74012    0.65111    0.99557    1.000
    N5360    N        0.82398    0.69770    0.09957    1.000
    N5361    N        0.81774    0.67300    0.01279    1.000
    Si5362   Si       0.74652    0.67697    0.10396    1.000
    Si5363   Si       0.85788    0.70827    0.07331    1.000
    Si5364   Si       0.83257    0.71188    0.00910    1.000
    N5365    N        0.96425    0.71361    0.21486    1.000
    N5366    N        0.87412    0.67772    0.04780    1.000
    Si5367   Si       0.91778    0.67772    0.04286    1.000
    N5368    N        0.93300    0.70821    0.06887    1.000
    N5369    N        0.92754    0.68859    0.00027    1.000
    Si5370   Si       0.97465    0.71215    0.06278    1.000
    N5371    N        0.85383    0.70588    0.17143    1.000
    Si5372   Si       0.82728    0.66849    0.17843    1.000
    N5373    N        0.84898    0.66532    0.21569    1.000
    N5374    N        0.78417    0.65707    0.18090    1.000
    Si5375   Si       0.88172    0.69068    0.20154    1.000
    N5376    N        0.91668    0.67025    0.18546    1.000
    N5377    N        0.95050    0.71460    0.14247    1.000
    Si5378   Si       0.95443    0.69016    0.17945    1.000
    Si5379   Si       0.76111    0.68353    0.26082    1.000
    Si5380   Si       0.83929    0.66920    0.32312    1.000
    N5381    N        0.75140    0.67372    0.30184    1.000
    N5382    N        0.84870    0.68218    0.28403    1.000
    N5383    N        0.82018    0.70101    0.34827    1.000
    Si5384   Si       0.78012    0.70177    0.36810    1.000
    Si5385   Si       0.83059    0.65561    0.25321    1.000
    N5386    N        0.76760    0.65893    0.37181    1.000
    N5387    N        0.92220    0.67438    0.26785    1.000
    Si5388   Si       0.88777    0.69937    0.27185    1.000
    N5389    N        0.98197    0.70579    0.28542    1.000
    Si5390   Si       0.96469    0.68726    0.25210    1.000
    N5391    N        0.95002    0.65763    0.34322    1.000
    N5392    N        0.87727    0.65662    0.34510    1.000
    N5393    N        0.75314    0.70367    0.47645    1.000
    Si5394   Si       0.75455    0.68962    0.43461    1.000
    Si5395   Si       0.85120    0.65703    0.44828    1.000
    N5396    N        0.83622    0.65784    0.40360    1.000
    Si5397   Si       0.94321    0.68762    0.37319    1.000
    N5398    N        0.97077    0.69910    0.40392    1.000
    N5399    N        0.86367    0.70029    0.45039    1.000
    N5400    N        0.90987    0.67620    0.40087    1.000
    Si5401   Si       0.87078    0.67976    0.38190    1.000
    Si5402   Si       0.90574    0.68401    0.44174    1.000
    N5403    N        0.93074    0.71527    0.45858    1.000
    N5404    N        0.78787    0.65055    0.24909    1.000
    N5405    N        0.81674    0.67568    0.54655    1.000
    Si5406   Si       0.80082    0.66887    0.58585    1.000
    N5407    N        0.76191    0.68335    0.59596    1.000
    N5408    N        0.83325    0.68725    0.61121    1.000
    Si5409   Si       0.90300    0.68494    0.54285    1.000
    N5410    N        0.89753    0.66902    0.58552    1.000
    N5411    N        0.94373    0.66453    0.54383    1.000
    Si5412   Si       0.96665    0.70055    0.52644    1.000
    Si5413   Si       0.87203    0.70118    0.59701    1.000
    N5414    N        0.96727    0.66157    0.60920    1.000
    N5415    N        0.88077    0.65216    0.52049    1.000
    Si5416   Si       0.74475    0.70284    0.62977    1.000
    Si5417   Si       0.83052    0.68344    0.65287    1.000
    N5418    N        0.74576    0.69461    0.67438    1.000
    Si5419   Si       0.86949    0.67484    0.71230    1.000
    Si5420   Si       0.93674    0.66314    0.74029    1.000
    N5421    N        0.93872    0.70671    0.74491    1.000
    Si5422   Si       0.90350    0.69945    0.66239    1.000
    N5423    N        0.87149    0.66890    0.66479    1.000
    N5424    N        0.94578    0.69095    0.66682    1.000
    N5425    N        0.80021    0.68925    0.76573    1.000
    Si5426   Si       0.76742    0.68268    0.79334    1.000
    Si5427   Si       0.83815    0.70335    0.78135    1.000
    N5428    N        0.84718    0.67530    0.81386    1.000
    N5429    N        0.78126    0.66378    0.83073    1.000
    Si5430   Si       0.87115    0.68764    0.84675    1.000
    N5431    N        0.90606    0.70875    0.82774    1.000
    N5432    N        0.97029    0.67388    0.81792    1.000
    Si5433   Si       0.92555    0.67155    0.81488    1.000
    N5434    N        0.86726    0.69560    0.75172    1.000
    Si5435   Si       0.75528    0.70714    0.91080    1.000
    N5436    N        0.85554    0.67621    0.88589    1.000
    N5437    N        0.95896    0.70453    0.88285    1.000
    Si5438   Si       0.96057    0.66302    0.98420    1.000
    Si5439   Si       0.94023    0.69093    0.91815    1.000
    N5440    N        0.97226    0.68158    0.94799    1.000
    N5441    N        0.83589    0.73496    0.04638    1.000
    Si5442   Si       0.79856    0.72617    0.11446    1.000
    Si5443   Si       0.75087    0.76421    0.10045    1.000
    N5444    N        0.79539    0.76716    0.09678    1.000
    N5445    N        0.75732    0.71983    0.09870    1.000
    Si5446   Si       0.93098    0.73279    0.10588    1.000
    N5447    N        0.88342    0.73102    0.10023    1.000
    N5448    N        0.97451    0.74532    0.09199    1.000
    Si5449   Si       0.97825    0.76795    0.00542    1.000
    Si5450   Si       0.87828    0.77254    0.11449    1.000
    Si5451   Si       0.75794    0.74880    0.17330    1.000
    Si5452   Si       0.79365    0.75755    0.23557    1.000
    N5453    N        0.79353    0.73442    0.15755    1.000
    Si5454   Si       0.83359    0.74347    0.17332    1.000
    N5455    N        0.83135    0.75385    0.21571    1.000
    Si5456   Si       0.87195    0.76339    0.23234    1.000
    N5457    N        0.88715    0.72072    0.23287    1.000
    N5458    N        0.73813    0.75316    0.01162    1.000
    N5459    N        0.84653    0.77349    0.14381    1.000
    Si5460   Si       0.83939    0.73766    0.35803    1.000
    N5461    N        0.74864    0.72377    0.34661    1.000
    Si5462   Si       0.75010    0.76702    0.35062    1.000
    N5463    N        0.77992    0.71997    0.25107    1.000
    N5464    N        0.84826    0.76850    0.32678    1.000
    N5465    N        0.94379    0.72230    0.34532    1.000
    N5466    N        0.90427    0.73096    0.29732    1.000
    Si5467   Si       0.94887    0.72860    0.30443    1.000
    Si5468   Si       0.91405    0.74656    0.36574    1.000
    Si5469   Si       0.88618    0.76825    0.30819    1.000
    N5470    N        0.87791    0.72324    0.37426    1.000
    N5471    N        0.96212    0.77106    0.29292    1.000
    Si5472   Si       0.78833    0.75686    0.41231    1.000
    Si5473   Si       0.78071    0.73532    0.48669    1.000
    Si5474   Si       0.85302    0.73453    0.47211    1.000
    N5475    N        0.78099    0.76625    0.45348    1.000
    N5476    N        0.82215    0.76597    0.38749    1.000
    N5477    N        0.78035    0.71488    0.40993    1.000
    N5478    N        0.84465    0.77005    0.44754    1.000
    Si5479   Si       0.93392    0.74775    0.48934    1.000
    N5480    N        0.88552    0.75717    0.49068    1.000
    Si5481   Si       0.95853    0.73274    0.42883    1.000
    N5482    N        0.93868    0.75892    0.39904    1.000
    N5483    N        0.80481    0.74393    0.56659    1.000
    Si5484   Si       0.79013    0.75919    0.60582    1.000
    N5485    N        0.76076    0.76173    0.51207    1.000
    Si5486   Si       0.82724    0.71730    0.54326    1.000
    N5487    N        0.82067    0.72913    0.50061    1.000
    N5488    N        0.87099    0.71756    0.55396    1.000
    Si5489   Si       0.89536    0.75542    0.53695    1.000
    Si5490   Si       0.95891    0.75597    0.54831    1.000
    N5491    N        0.92501    0.72135    0.52727    1.000
    N5492    N        0.97871    0.73976    0.50342    1.000
    N5493    N        0.93266    0.76189    0.58329    1.000
    N5494    N        0.98020    0.71902    0.56348    1.000
    Si5495   Si       0.92425    0.75469    0.62550    1.000
    N5496    N        0.83284    0.75649    0.73179    1.000
    N5497    N        0.76731    0.75861    0.71155    1.000
    N5498    N        0.77030    0.73775    0.63815    1.000
    Si5499   Si       0.77606    0.73085    0.67945    1.000
    Si5500   Si       0.84852    0.74455    0.69265    1.000
    N5501    N        0.81783    0.71675    0.67786    1.000
    N5502    N        0.95498    0.75951    0.65507    1.000
    Si5503   Si       0.89754    0.72325    0.73777    1.000
    N5504    N        0.89451    0.72234    0.62555    1.000
    Si5505   Si       0.97516    0.73093    0.74081    1.000
    Si5506   Si       0.97699    0.72431    0.66638    1.000
    N5507    N        0.88507    0.71995    0.69685    1.000
    N5508    N        0.84243    0.74498    0.79500    1.000
    Si5509   Si       0.75768    0.75233    0.80872    1.000
    N5510    N        0.78893    0.74794    0.83945    1.000
    N5511    N        0.85543    0.73351    0.85709    1.000
    Si5512   Si       0.82912    0.75918    0.83306    1.000
    N5513    N        0.73932    0.71555    0.79853    1.000
    Si5514   Si       0.85807    0.77214    0.76492    1.000
    N5515    N        0.95280    0.75865    0.82445    1.000
    Si5516   Si       0.89274    0.74866    0.84181    1.000
    N5517    N        0.89693    0.76304    0.75043    1.000
    Si5518   Si       0.95208    0.74526    0.86631    1.000
    Si5519   Si       0.99312    0.74509    0.81240    1.000
    N5520    N        0.74251    0.71903    0.95147    1.000
    Si5521   Si       0.78251    0.75472    0.88116    1.000
    Si5522   Si       0.84451    0.75133    0.96401    1.000
    Si5523   Si       0.76640    0.74723    0.97806    1.000
    N5524    N        0.80745    0.73333    0.98021    1.000
    N5525    N        0.85679    0.74449    0.92367    1.000
    N5526    N        0.79683    0.71853    0.90144    1.000
    Si5527   Si       0.83953    0.71508    0.89635    1.000
    N5528    N        0.98432    0.76899    0.88326    1.000
    N5529    N        0.91379    0.75687    0.88025    1.000
    Si5530   Si       0.91143    0.72343    0.98316    1.000
    N5531    N        0.91673    0.72098    0.93892    1.000
    Si5532   Si       0.89774    0.75495    0.92064    1.000
    N5533    N        0.86903    0.72630    0.98885    1.000
    N5534    N        0.93661    0.75607    0.99666    1.000
    N5535    N        0.74164    0.74305    0.88729    1.000
    N5536    N        0.79376    0.79007    0.03039    1.000
    N5537    N        0.85273    0.79601    0.08421    1.000
    Si5538   Si       0.75171    0.78992    0.03064    1.000
    Si5539   Si       0.81948    0.79629    0.11654    1.000
    Si5540   Si       0.82041    0.77337    0.06020    1.000
    N5541    N        0.97672    0.79439    0.04140    1.000
    Si5542   Si       0.93888    0.81385    0.11400    1.000
    N5543    N        0.98193    0.81217    0.10368    1.000
    N5544    N        0.91773    0.82305    0.07586    1.000
    N5545    N        0.92172    0.82624    0.00925    1.000
    Si5546   Si       0.94909    0.82828    0.04359    1.000
    N5547    N        0.88394    0.79524    0.20350    1.000
    N5548    N        0.92144    0.77408    0.12299    1.000
    N5549    N        0.76657    0.77487    0.20602    1.000
    Si5550   Si       0.88166    0.83648    0.22034    1.000
    Si5551   Si       0.82061    0.80176    0.34335    1.000
    Si5552   Si       0.77289    0.79775    0.28886    1.000
    Si5553   Si       0.84031    0.81182    0.27571    1.000
    N5554    N        0.80511    0.78832    0.26376    1.000
    N5555    N        0.78309    0.78104    0.32532    1.000
    N5556    N        0.98508    0.82356    0.44387    1.000
    N5557    N        0.87465    0.78327    0.27004    1.000
    Si5558   Si       0.94600    0.80135    0.31918    1.000
    N5559    N        0.91280    0.78410    0.33931    1.000
    N5560    N        0.98041    0.81395    0.34287    1.000
    N5561    N        0.85049    0.82607    0.37558    1.000
    Si5562   Si       0.74708    0.79351    0.48378    1.000
    N5563    N        0.78058    0.82112    0.48275    1.000
    Si5564   Si       0.81259    0.79648    0.46445    1.000
    Si5565   Si       0.84484    0.79526    0.40932    1.000
    N5566    N        0.81356    0.82367    0.42946    1.000
    N5567    N        0.84303    0.81249    0.49424    1.000
    N5568    N        0.75489    0.77600    0.39332    1.000
    N5569    N        0.88849    0.80166    0.41591    1.000
    N5570    N        0.94666    0.77570    0.45603    1.000
    Si5571   Si       0.87648    0.79565    0.46881    1.000
    N5572    N        0.93727    0.83092    0.39329    1.000
    Si5573   Si       0.93254    0.79786    0.42092    1.000
    N5574    N        0.90476    0.82831    0.47052    1.000
    N5575    N        0.73843    0.83456    0.43206    1.000
    N5576    N        0.80580    0.81335    0.54762    1.000
    Si5577   Si       0.78750    0.82454    0.58722    1.000
    Si5578   Si       0.85240    0.82063    0.53667    1.000
    N5579    N        0.75974    0.78302    0.58259    1.000
    N5580    N        0.81222    0.79552    0.61467    1.000
    Si5581   Si       0.78506    0.77527    0.54502    1.000
    Si5582   Si       0.90600    0.79888    0.58603    1.000
    N5583    N        0.87375    0.78890    0.55735    1.000
    N5584    N        0.93195    0.78407    0.52171    1.000
    Si5585   Si       0.92530    0.82781    0.50932    1.000
    Si5586   Si       0.83114    0.81336    0.64833    1.000
    N5587    N        0.80108    0.82052    0.73164    1.000
    N5588    N        0.85337    0.78291    0.67210    1.000
    Si5589   Si       0.79504    0.77699    0.73702    1.000
    N5590    N        0.74282    0.81583    0.69280    1.000
    Si5591   Si       0.92816    0.78893    0.73807    1.000
    Si5592   Si       0.88974    0.80817    0.66625    1.000
    N5593    N        0.90039    0.79076    0.62851    1.000
    N5594    N        0.92125    0.80137    0.69743    1.000
    Si5595   Si       0.95523    0.80341    0.66646    1.000
    N5596    N        0.96771    0.77119    0.73681    1.000
    N5597    N        0.83395    0.80040    0.84482    1.000
    N5598    N        0.84845    0.81254    0.77735    1.000
    N5599    N        0.77301    0.77675    0.77650    1.000
    Si5600   Si       0.86376    0.81608    0.81851    1.000
    Si5601   Si       0.93475    0.79759    0.81297    1.000
    N5602    N        0.93494    0.81423    0.77416    1.000
    N5603    N        0.89509    0.78671    0.82238    1.000
    N5604    N        0.96303    0.82555    0.83523    1.000
    Si5605   Si       0.81692    0.82066    0.88048    1.000
    N5606    N        0.84087    0.79475    0.96895    1.000
    Si5607   Si       0.75785    0.80304    0.92673    1.000
    N5608    N        0.78482    0.79603    0.89496    1.000
    N5609    N        0.77097    0.78757    0.96538    1.000
    Si5610   Si       0.80562    0.80432    0.99143    1.000
    N5611    N        0.84918    0.83040    0.90831    1.000
    Si5612   Si       0.86792    0.81948    0.94632    1.000
    Si5613   Si       0.92809    0.79455    0.97955    1.000
    Si5614   Si       0.98287    0.81026    0.87210    1.000
    N5615    N        0.90135    0.79176    0.94598    1.000
    N5616    N        0.96931    0.80141    0.96899    1.000
    Si5617   Si       0.81891    0.87066    0.09403    1.000
    Si5618   Si       0.82340    0.86890    0.02286    1.000
    N5619    N        0.80049    0.88091    0.05778    1.000
    N5620    N        0.85756    0.84194    0.03229    1.000
    N5621    N        0.86306    0.86912    0.09209    1.000
    N5622    N        0.80587    0.83590    0.11978    1.000
    Si5623   Si       0.87494    0.83074    0.07112    1.000
    N5624    N        0.97133    0.86531    0.04998    1.000
    Si5625   Si       0.89049    0.85704    0.00904    1.000
    N5626    N        0.90586    0.88872    0.03180    1.000
    Si5627   Si       0.73849    0.87740    0.19795    1.000
    N5628    N        0.77887    0.88451    0.18429    1.000
    N5629    N        0.74697    0.84439    0.23017    1.000
    Si5630   Si       0.78498    0.86506    0.14512    1.000
    N5631    N        0.74507    0.85811    0.13214    1.000
    Si5632   Si       0.94870    0.88185    0.13451    1.000
    N5633    N        0.93158    0.84204    0.14539    1.000
    N5634    N        0.88484    0.86788    0.18941    1.000
    N5635    N        0.92501    0.84124    0.22807    1.000
    N5636    N        0.95466    0.88560    0.17828    1.000
    Si5637   Si       0.92749    0.85339    0.18667    1.000
    Si5638   Si       0.76450    0.86891    0.26083    1.000
    Si5639   Si       0.76173    0.85321    0.33446    1.000
    Si5640   Si       0.85257    0.86379    0.33464    1.000
    N5641    N        0.76660    0.84058    0.29426    1.000
    Si5642   Si       0.84160    0.88281    0.26434    1.000
    Si5643   Si       0.97071    0.85921    0.46285    1.000
    N5644    N        0.79002    0.83434    0.36181    1.000
    N5645    N        0.85125    0.84322    0.24998    1.000
    N5646    N        0.80056    0.89277    0.25052    1.000
    N5647    N        0.93819    0.83859    0.29815    1.000
    N5648    N        0.89504    0.86008    0.34570    1.000
    Si5649   Si       0.93239    0.87227    0.32411    1.000
    Si5650   Si       0.95346    0.85083    0.25768    1.000
    N5651    N        0.96333    0.88101    0.35156    1.000
    Si5652   Si       0.89359    0.83669    0.38415    1.000
    N5653    N        0.80789    0.87464    0.47269    1.000
    Si5654   Si       0.81652    0.85292    0.39071    1.000
    Si5655   Si       0.77928    0.85229    0.44563    1.000
    N5656    N        0.78422    0.87712    0.41036    1.000
    N5657    N        0.93841    0.88495    0.45021    1.000
    Si5658   Si       0.89896    0.86758    0.45226    1.000
    Si5659   Si       0.97159    0.84316    0.37290    1.000
    N5660    N        0.88304    0.87232    0.41133    1.000
    N5661    N        0.74836    0.88776    0.46105    1.000
    N5662    N        0.83376    0.83123    0.31286    1.000
    N5663    N        0.96886    0.88974    0.24487    1.000
    N5664    N        0.80326    0.86459    0.59829    1.000
    N5665    N        0.83472    0.86561    0.53563    1.000
    Si5666   Si       0.80403    0.84732    0.50926    1.000
    N5667    N        0.77412    0.87663    0.52831    1.000
    N5668    N        0.74569    0.84128    0.57805    1.000
    N5669    N        0.89396    0.84728    0.53270    1.000
    Si5670   Si       0.91149    0.87005    0.56663    1.000
    N5671    N        0.96124    0.85194    0.50313    1.000
    Si5672   Si       0.97785    0.87667    0.53837    1.000
    N5673    N        0.93004    0.83660    0.58589    1.000
    Si5674   Si       0.96659    0.84737    0.60716    1.000
    Si5675   Si       0.86975    0.88246    0.51889    1.000
    N5676    N        0.87961    0.88747    0.59069    1.000
    Si5677   Si       0.80276    0.87711    0.63962    1.000
    N5678    N        0.76967    0.87851    0.71402    1.000
    N5679    N        0.80277    0.84093    0.66520    1.000
    Si5680   Si       0.77897    0.83750    0.69987    1.000
    N5681    N        0.83684    0.88131    0.74023    1.000
    N5682    N        0.94493    0.84202    0.65133    1.000
    N5683    N        0.86797    0.84213    0.65001    1.000
    Si5684   Si       0.95089    0.88325    0.65654    1.000
    N5685    N        0.90943    0.86290    0.73618    1.000
    Si5686   Si       0.87547    0.88242    0.63403    1.000
    N5687    N        0.98262    0.84065    0.73777    1.000
    N5688    N        0.98295    0.88393    0.62694    1.000
    N5689    N        0.79852    0.86164    0.79525    1.000
    Si5690   Si       0.82374    0.84583    0.76196    1.000
    Si5691   Si       0.75816    0.88045    0.78603    1.000
    Si5692   Si       0.79788    0.88169    0.83727    1.000
    N5693    N        0.75643    0.88765    0.82975    1.000
    N5694    N        0.87352    0.85712    0.82708    1.000
    Si5695   Si       0.97875    0.86312    0.82028    1.000
    N5696    N        0.94910    0.87936    0.79204    1.000
    Si5697   Si       0.94421    0.85238    0.75582    1.000
    Si5698   Si       0.88830    0.88740    0.85205    1.000
    N5699    N        0.80090    0.86275    0.87831    1.000
    Si5700   Si       0.83717    0.87242    0.90281    1.000
    Si5701   Si       0.76129    0.86599    0.89868    1.000
    Si5702   Si       0.75635    0.84988    0.98249    1.000
    N5703    N        0.75633    0.84496    0.93762    1.000
    Si5704   Si       0.96009    0.87669    0.89009    1.000
    N5705    N        0.97306    0.83738    0.90574    1.000
    N5706    N        0.91809    0.87815    0.88146    1.000
    N5707    N        0.87539    0.85748    0.96710    1.000
    Si5708   Si       0.85818    0.89644    0.96654    1.000
    N5709    N        0.79933    0.84637    0.99598    1.000
    N5710    N        0.75787    0.93677    0.03299    1.000
    N5711    N        0.75261    0.92548    0.09559    1.000
    Si5712   Si       0.76189    0.90323    0.06105    1.000
    N5713    N        0.84732    0.90401    0.00771    1.000
    Si5714   Si       0.87940    0.92323    0.03216    1.000
    N5715    N        0.87703    0.93626    0.07377    1.000
    Si5716   Si       0.88445    0.90459    0.10300    1.000
    N5717    N        0.95825    0.93785    0.05983    1.000
    Si5718   Si       0.94077    0.89694    0.05940    1.000
    N5719    N        0.92610    0.89525    0.09965    1.000
    N5720    N        0.80798    0.89773    0.12631    1.000
    Si5721   Si       0.79419    0.91632    0.21167    1.000
    N5722    N        0.83248    0.91992    0.18889    1.000
    Si5723   Si       0.82855    0.92991    0.14582    1.000
    N5724    N        0.97148    0.94749    0.19474    1.000
    N5725    N        0.87188    0.90690    0.24136    1.000
    Si5726   Si       0.87320    0.90750    0.19761    1.000
    N5727    N        0.90478    0.93485    0.18829    1.000
    N5728    N        0.87177    0.92786    0.13729    1.000
    Si5729   Si       0.98196    0.90386    0.20594    1.000
    Si5730   Si       0.74846    0.92423    0.31142    1.000
    N5731    N        0.77422    0.89742    0.33510    1.000
    Si5732   Si       0.80283    0.91961    0.35984    1.000
    N5733    N        0.85537    0.89461    0.30281    1.000
    Si5734   Si       0.86576    0.90878    0.39523    1.000
    N5735    N        0.93563    0.94216    0.49029    1.000
    Si5736   Si       0.86159    0.93279    0.32717    1.000
    Si5737   Si       0.96234    0.92397    0.27147    1.000
    Si5738   Si       0.89605    0.92229    0.27148    1.000
    N5739    N        0.92884    0.90433    0.29381    1.000
    Si5740   Si       0.98380    0.91838    0.35072    1.000
    N5741    N        0.88651    0.93101    0.36476    1.000
    N5742    N        0.77778    0.93797    0.38942    1.000
    Si5743   Si       0.83390    0.90951    0.46497    1.000
    N5744    N        0.83937    0.92638    0.42538    1.000
    Si5745   Si       0.75713    0.91210    0.41912    1.000
    N5746    N        0.80555    0.93481    0.48756    1.000
    N5747    N        0.96366    0.94848    0.37729    1.000
    Si5748   Si       0.94357    0.92852    0.44884    1.000
    N5749    N        0.98614    0.94122    0.44321    1.000
    N5750    N        0.83501    0.88937    0.36535    1.000
    N5751    N        0.87139    0.88954    0.47683    1.000
    Si5752   Si       0.77100    0.90605    0.49523    1.000
    N5753    N        0.82067    0.92745    0.57282    1.000
    N5754    N        0.75560    0.91369    0.58015    1.000
    N5755    N        0.73981    0.93238    0.51162    1.000
    Si5756   Si       0.79314    0.89294    0.56599    1.000
    Si5757   Si       0.87944    0.89407    0.73677    1.000
    N5758    N        0.96051    0.90879    0.68903    1.000
    Si5759   Si       0.86309    0.92565    0.57654    1.000
    N5760    N        0.88069    0.91976    0.53711    1.000
    Si5761   Si       0.92257    0.93349    0.53160    1.000
    N5762    N        0.94265    0.89704    0.54921    1.000
    Si5763   Si       0.92242    0.94042    0.61917    1.000
    N5764    N        0.83779    0.90292    0.64802    1.000
    Si5765   Si       0.84420    0.93029    0.68042    1.000
    N5766    N        0.80607    0.93325    0.70315    1.000
    Si5767   Si       0.79863    0.90365    0.73418    1.000
    Si5768   Si       0.74394    0.90047    0.68698    1.000
    N5769    N        0.76318    0.89548    0.64726    1.000
    N5770    N        0.91496    0.90390    0.64406    1.000
    N5771    N        0.88094    0.91440    0.69921    1.000
    Si5772   Si       0.92056    0.93206    0.68485    1.000
    N5773    N        0.77986    0.92057    0.77026    1.000
    N5774    N        0.81239    0.92315    0.83487    1.000
    Si5775   Si       0.79785    0.94718    0.80111    1.000
    Si5776   Si       0.83260    0.93784    0.87024    1.000
    Si5777   Si       0.74060    0.94258    0.77717    1.000
    Si5778   Si       0.92629    0.91506    0.79659    1.000
    N5779    N        0.90730    0.92073    0.83342    1.000
    N5780    N        0.89487    0.92222    0.76638    1.000
    Si5781   Si       0.91867    0.94304    0.97836    1.000
    N5782    N        0.98096    0.89276    0.85337    1.000
    N5783    N        0.85640    0.90035    0.87764    1.000
    Si5784   Si       0.79154    0.92176    0.93191    1.000
    N5785    N        0.75689    0.90644    0.91092    1.000
    N5786    N        0.77922    0.93973    0.96904    1.000
    Si5787   Si       0.74516    0.92561    0.99393    1.000
    N5788    N        0.95418    0.90425    0.92354    1.000
    N5789    N        0.82724    0.89601    0.93784    1.000
    Si5790   Si       0.98042    0.90921    0.95877    1.000
    N5791    N        0.89129    0.92059    0.95325    1.000
    N5792    N        0.95669    0.92667    0.98956    1.000
    Si5793   Si       0.91202    0.91389    0.91484    1.000
    N5794    N        0.78474    0.98735    0.07344    1.000
    Si5795   Si       0.75679    0.97825    0.04092    1.000
    Si5796   Si       0.77590    0.95972    0.10714    1.000
    N5797    N        0.76748    0.00129    0.00409    1.000
    Si5798   Si       0.89134    0.97353    0.09245    1.000
    Si5799   Si       0.96300    0.96040    0.09606    1.000
    N5800    N        0.94894    0.99404    0.01966    1.000
    Si5801   Si       0.90586    0.99824    0.01935    1.000
    N5802    N        0.92612    0.96338    0.11918    1.000
    N5803    N        0.89435    0.95783    0.01130    1.000
    Si5804   Si       0.96854    0.95516    0.02167    1.000
    N5805    N        0.89807    0.00616    0.06152    1.000
    N5806    N        0.97328    0.00211    0.08734    1.000
    Si5807   Si       0.83137    0.00420    0.12440    1.000
    N5808    N        0.81386    0.96486    0.12558    1.000
    N5809    N        0.74999    0.98621    0.13689    1.000
    Si5810   Si       0.79197    0.99643    0.23945    1.000
    N5811    N        0.78452    0.95687    0.22175    1.000
    Si5812   Si       0.98804    0.96888    0.16209    1.000
    Si5813   Si       0.74100    0.95984    0.22384    1.000
    N5814    N        0.90955    0.99373    0.18132    1.000
    N5815    N        0.88169    0.00586    0.24549    1.000
    Si5816   Si       0.89874    0.95984    0.15260    1.000
    Si5817   Si       0.93329    0.96392    0.20796    1.000
    N5818    N        0.87381    0.99495    0.12566    1.000
    N5819    N        0.74819    0.00648    0.24670    1.000
    Si5820   Si       0.80051    0.97902    0.31261    1.000
    N5821    N        0.76048    0.96786    0.30320    1.000
    N5822    N        0.81497    0.98888    0.27396    1.000
    Si5823   Si       0.89011    0.97724    0.44670    1.000
    N5824    N        0.82195    0.94820    0.33285    1.000
    Si5825   Si       0.90693    0.98525    0.27246    1.000
    N5826    N        0.91440    0.99506    0.36105    1.000
    N5827    N        0.88279    0.95618    0.29713    1.000
    N5828    N        0.92710    0.95262    0.25061    1.000
    N5829    N        0.85055    0.97147    0.46803    1.000
    Si5830   Si       0.83270    0.96969    0.42693    1.000
    Si5831   Si       0.75992    0.97624    0.40822    1.000
    N5832    N        0.79501    0.99073    0.42887    1.000
    N5833    N        0.74378    0.95373    0.44070    1.000
    Si5834   Si       0.91985    0.95523    0.37970    1.000
    N5835    N        0.86520    0.99155    0.41124    1.000
    N5836    N        0.91470    0.94887    0.42395    1.000
    N5837    N        0.76829    0.97777    0.55154    1.000
    N5838    N        0.83462    0.98287    0.53724    1.000
    Si5839   Si       0.80656    0.97259    0.57035    1.000
    N5840    N        0.81276    0.98525    0.61204    1.000
    Si5841   Si       0.81686    0.97595    0.49589    1.000
    Si5842   Si       0.90874    0.99331    0.57620    1.000
    N5843    N        0.92413    0.97610    0.54064    1.000
    N5844    N        0.89049    0.95726    0.59388    1.000
    N5845    N        0.96450    0.95114    0.60669    1.000
    N5846    N        0.97778    0.00140    0.49875    1.000
    Si5847   Si       0.93682    0.98445    0.49725    1.000
    Si5848   Si       0.79406    0.00656    0.64420    1.000
    N5849    N        0.77279    0.99694    0.72542    1.000
    N5850    N        0.76522    0.98056    0.66141    1.000
    Si5851   Si       0.77313    0.96151    0.69956    1.000
    N5852    N        0.85615    0.97137    0.67792    1.000
    Si5853   Si       0.92251    0.99601    0.68514    1.000
    N5854    N        0.92134    0.96474    0.71556    1.000
    Si5855   Si       0.95810    0.98915    0.63303    1.000
    N5856    N        0.92461    0.96456    0.65531    1.000
    N5857    N        0.82544    0.96901    0.77875    1.000
    N5858    N        0.75755    0.96470    0.80926    1.000
    N5859    N        0.85824    0.97307    0.86111    1.000
    Si5860   Si       0.85014    0.00408    0.77483    1.000
    Si5861   Si       0.97634    0.97561    0.79850    1.000
    N5862    N        0.92339    0.99216    0.84338    1.000
    N5863    N        0.89404    0.99456    0.77613    1.000
    Si5864   Si       0.91348    0.96123    0.75730    1.000
    Si5865   Si       0.89782    0.95938    0.85411    1.000
    N5866    N        0.74455    0.96588    0.87722    1.000
    Si5867   Si       0.75692    0.98004    0.96620    1.000
    Si5868   Si       0.77970    0.98364    0.89744    1.000
    N5869    N        0.75991    0.00349    0.93163    1.000
    Si5870   Si       0.84567    0.00528    0.88697    1.000
    N5871    N        0.80831    0.95114    0.90415    1.000
    N5872    N        0.85983    0.99994    0.92818    1.000
    Si5873   Si       0.97619    0.97888    0.94279    1.000
    N5874    N        0.97185    0.98684    0.90175    1.000
    N5875    N        0.90735    0.95284    0.89659    1.000
    Si5876   Si       0.90191    0.98551    0.92364    1.000
    N5877    N        0.93143    0.97680    0.95334    1.000
    Si5878   Si       0.74339    0.00886    0.75764    1.000
    N5879    N        0.94824    0.94987    0.78166    1.000
