# CIF file generated by openbabel 3.1.1, see https://openbabel.org
data_I
_chemical_name_common '3.01-21.aims'
_cell_length_a 39.9167
_cell_length_b 39.9167
_cell_length_c 39.9167
_cell_angle_alpha 90
_cell_angle_beta 90
_cell_angle_gamma 90
loop_
    _atom_site_label
    _atom_site_type_symbol
    _atom_site_fract_x
    _atom_site_fract_y
    _atom_site_fract_z
    _atom_site_occupancy
    Si0      Si       0.01652    0.06652    0.08138    1.000
    Si1      Si       0.02458    0.02135    0.02009    1.000
    N2       N        0.99765    0.04277    0.05054    1.000
    Si3      Si       0.00401    0.12416    0.00241    1.000
    N4       N        0.98815    0.10023    0.08230    1.000
    N5       N        0.01290    0.04480    0.12008    1.000
    N6       N        0.03967    0.23408    0.08044    1.000
    N7       N        0.00486    0.15606    0.03553    1.000
    Si8      Si       0.02556    0.24197    0.04097    1.000
    N9       N        0.04139    0.21532    0.01057    1.000
    Si10     Si       0.04206    0.17534    0.02892    1.000
    N11      N        0.00029    0.06401    0.18610    1.000
    Si12     Si       0.02450    0.07273    0.15110    1.000
    N13      N        0.01490    0.11488    0.14160    1.000
    Si14     Si       0.01811    0.04143    0.21903    1.000
    N15      N        0.03490    0.07319    0.24308    1.000
    N16      N        0.00301    0.16429    0.18782    1.000
    N17      N        0.04120    0.18939    0.13406    1.000
    N18      N        0.00614    0.23868    0.18456    1.000
    Si19     Si       0.00514    0.24367    0.22768    1.000
    Si20     Si       0.03936    0.22283    0.16143    1.000
    Si21     Si       0.01250    0.17133    0.23004    1.000
    Si22     Si       0.03080    0.15193    0.15708    1.000
    N23      N        0.98881    0.01385    0.23545    1.000
    N24      N        0.98648    0.20683    0.24005    1.000
    N25      N        0.04326    0.24149    0.24613    1.000
    N26      N        0.01004    0.09435    0.30771    1.000
    Si27     Si       0.02633    0.10780    0.26954    1.000
    Si28     Si       0.02554    0.08913    0.34783    1.000
    N29      N        0.02858    0.04707    0.36526    1.000
    Si30     Si       0.04832    0.02224    0.33324    1.000
    N31      N        0.03400    0.17884    0.35794    1.000
    N32      N        0.00051    0.19356    0.30176    1.000
    Si33     Si       0.03818    0.19734    0.31966    1.000
    N34      N        0.99770    0.13603    0.25147    1.000
    Si35     Si       0.01273    0.17979    0.39542    1.000
    N36      N        0.02111    0.07591    0.43801    1.000
    N37      N        0.00205    0.10137    0.38341    1.000
    Si38     Si       0.00727    0.05461    0.40166    1.000
    Si39     Si       0.01040    0.11528    0.42565    1.000
    N40      N        0.01077    0.01217    0.42311    1.000
    N41      N        0.02281    0.18354    0.48463    1.000
    N42      N        0.01839    0.21778    0.41518    1.000
    N43      N        0.03310    0.15091    0.42171    1.000
    Si44     Si       0.03223    0.11514    0.58338    1.000
    N45      N        0.02014    0.07557    0.56840    1.000
    Si46     Si       0.01216    0.09102    0.53009    1.000
    Si47     Si       0.00385    0.03486    0.57731    1.000
    N48      N        0.04205    0.01505    0.55524    1.000
    N49      N        0.02930    0.13383    0.54237    1.000
    N50      N        0.99976    0.13343    0.60518    1.000
    Si51     Si       0.03523    0.18810    0.52863    1.000
    Si52     Si       0.01166    0.23221    0.57350    1.000
    N53      N        0.00099    0.19136    0.55821    1.000
    N54      N        0.04084    0.23340    0.53604    1.000
    N55      N        0.02253    0.22346    0.61603    1.000
    Si56     Si       0.01214    0.06163    0.64592    1.000
    N57      N        0.02465    0.10179    0.65883    1.000
    Si58     Si       0.01451    0.08237    0.70901    1.000
    N59      N        0.99573    0.04823    0.68437    1.000
    Si60     Si       0.01925    0.01173    0.69345    1.000
    N61      N        0.04438    0.03628    0.63779    1.000
    Si62     Si       0.99331    0.13219    0.64717    1.000
    N63      N        0.02243    0.23196    0.74653    1.000
    N64      N        0.01039    0.16743    0.66439    1.000
    Si65     Si       0.01372    0.24116    0.70351    1.000
    Si66     Si       0.04560    0.17609    0.68943    1.000
    Si67     Si       0.99567    0.20419    0.64462    1.000
    N68      N        0.04484    0.21988    0.68189    1.000
    N69      N        0.04654    0.16755    0.73097    1.000
    Si70     Si       0.02027    0.07840    0.84911    1.000
    N71      N        0.03886    0.11859    0.84379    1.000
    Si72     Si       0.01956    0.02083    0.75934    1.000
    N73      N        0.02056    0.12841    0.77363    1.000
    Si74     Si       0.02138    0.18872    0.75858    1.000
    Si75     Si       0.03290    0.21624    0.82886    1.000
    Si76     Si       0.02078    0.14430    0.81277    1.000
    N77      N        0.04033    0.18355    0.80047    1.000
    N78      N        0.98990    0.21745    0.83357    1.000
    Si79     Si       0.99291    0.24827    0.94847    1.000
    N80      N        0.00011    0.09295    0.88546    1.000
    Si81     Si       0.03390    0.01943    0.88715    1.000
    N82      N        0.00896    0.03289    0.91898    1.000
    N83      N        0.99701    0.02527    0.98792    1.000
    N84      N        0.02229    0.08717    0.98564    1.000
    N85      N        0.04653    0.13122    0.91911    1.000
    Si86     Si       0.02247    0.12945    0.88331    1.000
    N87      N        0.03327    0.19617    0.93676    1.000
    N88      N        0.00586    0.16883    0.88017    1.000
    Si89     Si       0.01863    0.20672    0.89914    1.000
    Si90     Si       0.02946    0.15598    0.95038    1.000
    N91      N        0.99141    0.14709    0.96682    1.000
    N92      N        0.03472    0.25883    0.96072    1.000
    N93      N        0.00603    0.05984    0.74768    1.000
    N94      N        0.01304    0.35826    0.03986    1.000
    N95      N        0.03203    0.28424    0.02817    1.000
    Si96     Si       0.01274    0.31522    0.05370    1.000
    N97      N        0.03006    0.30671    0.09269    1.000
    Si98     Si       0.02769    0.26690    0.10825    1.000
    Si99     Si       0.03501    0.38921    0.05927    1.000
    N100     N        0.01243    0.41182    0.08999    1.000
    N101     N        0.00573    0.48721    0.10168    1.000
    Si102    Si       0.01733    0.43745    0.01226    1.000
    Si103    Si       0.00214    0.49513    0.02448    1.000
    N104     N        0.99199    0.45771    0.04528    1.000
    N105     N        0.03387    0.36380    0.13656    1.000
    Si106    Si       0.03118    0.35054    0.17758    1.000
    N107     N        0.99128    0.33805    0.18823    1.000
    N108     N        0.00113    0.43607    0.23299    1.000
    N109     N        0.04019    0.42960    0.15198    1.000
    N110     N        0.01788    0.47972    0.19167    1.000
    N111     N        0.02871    0.38982    0.20325    1.000
    Si112    Si       0.01458    0.40188    0.13145    1.000
    Si113    Si       0.03335    0.43723    0.19573    1.000
    Si114    Si       0.99089    0.39394    0.22629    1.000
    N115     N        0.04893    0.33317    0.24277    1.000
    N116     N        0.00525    0.35792    0.33281    1.000
    N117     N        0.02498    0.29692    0.36507    1.000
    Si118    Si       0.00936    0.32293    0.26070    1.000
    N119     N        0.99846    0.36820    0.25995    1.000
    N120     N        0.03647    0.30220    0.29673    1.000
    Si121    Si       0.99796    0.31397    0.32978    1.000
    Si122    Si       0.03518    0.37935    0.35359    1.000
    Si123    Si       0.00764    0.44875    0.27648    1.000
    N124     N        0.99268    0.41755    0.30415    1.000
    N125     N        0.01538    0.41609    0.37099    1.000
    Si126    Si       0.03007    0.28316    0.46128    1.000
    N127     N        0.01478    0.36454    0.47498    1.000
    Si128    Si       0.02487    0.32435    0.39816    1.000
    N129     N        0.04655    0.31324    0.43498    1.000
    N130     N        0.98955    0.27114    0.44892    1.000
    Si131    Si       0.02340    0.44308    0.40523    1.000
    Si132    Si       0.02714    0.40789    0.47546    1.000
    N133     N        0.04056    0.41541    0.43366    1.000
    N134     N        0.02063    0.34910    0.54849    1.000
    N135     N        0.02332    0.27822    0.57502    1.000
    Si136    Si       0.03218    0.34089    0.50857    1.000
    N137     N        0.03347    0.29855    0.50222    1.000
    Si138    Si       0.04732    0.27657    0.53877    1.000
    Si139    Si       0.03687    0.44349    0.53707    1.000
    N140     N        0.02403    0.49688    0.59961    1.000
    N141     N        0.03607    0.48594    0.52837    1.000
    N142     N        0.99690    0.42771    0.54853    1.000
    Si143    Si       0.03633    0.45488    0.61316    1.000
    N144     N        0.00031    0.43080    0.62013    1.000
    Si145    Si       0.01638    0.29716    0.65573    1.000
    Si146    Si       0.02139    0.31712    0.72679    1.000
    N147     N        0.01552    0.28465    0.69906    1.000
    N148     N        0.02014    0.33976    0.66507    1.000
    N149     N        0.01050    0.47194    0.74422    1.000
    N150     N        0.01131    0.46341    0.67521    1.000
    Si151    Si       0.03572    0.47671    0.70707    1.000
    N152     N        0.01802    0.29821    0.76586    1.000
    Si153    Si       0.04264    0.37794    0.85523    1.000
    N154     N        0.00664    0.35506    0.86561    1.000
    N155     N        0.99523    0.28987    0.84095    1.000
    Si156    Si       0.04466    0.26204    0.76898    1.000
    Si157    Si       0.98942    0.30322    0.79924    1.000
    N158     N        0.02993    0.39567    0.81802    1.000
    N159     N        0.03111    0.46438    0.80769    1.000
    Si160    Si       0.01824    0.44157    0.77350    1.000
    Si161    Si       0.99787    0.48496    0.83182    1.000
    Si162    Si       0.01205    0.31085    0.87669    1.000
    N163     N        0.02872    0.32610    0.96920    1.000
    Si164    Si       0.04638    0.29095    0.98864    1.000
    N165     N        0.98753    0.32014    0.91389    1.000
    Si166    Si       0.01199    0.48561    0.94874    1.000
    N167     N        0.01927    0.47566    0.99096    1.000
    N168     N        0.00527    0.44943    0.92785    1.000
    N169     N        0.04581    0.50497    0.92531    1.000
    Si170    Si       0.01438    0.44562    0.88522    1.000
    N171     N        0.03854    0.40865    0.88582    1.000
    N172     N        0.03821    0.39966    0.95969    1.000
    Si173    Si       0.99554    0.41300    0.95049    1.000
    Si174    Si       0.01947    0.52493    0.08686    1.000
    Si175    Si       0.01098    0.62188    0.10940    1.000
    N176     N        0.02592    0.52432    0.04413    1.000
    N177     N        0.03422    0.59536    0.01975    1.000
    Si178    Si       0.03191    0.55246    0.01206    1.000
    Si179    Si       0.01287    0.62890    0.03443    1.000
    N180     N        0.99626    0.65323    0.13363    1.000
    Si181    Si       0.01823    0.73775    0.01606    1.000
    N182     N        0.04413    0.69355    0.09343    1.000
    Si183    Si       0.00583    0.65682    0.21620    1.000
    Si184    Si       0.02847    0.52079    0.20872    1.000
    N185     N        0.01137    0.58626    0.13416    1.000
    N186     N        0.00826    0.55395    0.19182    1.000
    Si187    Si       0.01845    0.59254    0.17722    1.000
    N188     N        0.02682    0.69185    0.23506    1.000
    Si189    Si       0.01234    0.69304    0.12492    1.000
    N190     N        0.03341    0.63349    0.19474    1.000
    N191     N        0.02896    0.71179    0.15956    1.000
    N192     N        0.01384    0.58960    0.28895    1.000
    N193     N        0.99811    0.57444    0.35458    1.000
    Si194    Si       0.03670    0.55293    0.28171    1.000
    Si195    Si       0.03711    0.55312    0.35181    1.000
    N196     N        0.02073    0.52873    0.25086    1.000
    N197     N        0.03785    0.52536    0.31712    1.000
    Si198    Si       0.00427    0.63301    0.28627    1.000
    Si199    Si       0.01298    0.69473    0.32023    1.000
    N200     N        0.03377    0.65931    0.30249    1.000
    Si201    Si       0.00619    0.72564    0.25599    1.000
    N202     N        0.04109    0.72724    0.32957    1.000
    N203     N        0.99483    0.67999    0.35768    1.000
    N204     N        0.99370    0.58705    0.42440    1.000
    N205     N        0.03272    0.53695    0.39093    1.000
    Si206    Si       0.03225    0.61086    0.43020    1.000
    Si207    Si       0.99282    0.55764    0.39315    1.000
    N208     N        0.04643    0.63394    0.39520    1.000
    Si209    Si       0.02236    0.74470    0.42426    1.000
    N210     N        0.01015    0.70524    0.48571    1.000
    Si211    Si       0.00019    0.67837    0.45105    1.000
    Si212    Si       0.03301    0.67510    0.38842    1.000
    N213     N        0.00883    0.70291    0.41551    1.000
    N214     N        0.02345    0.64239    0.45664    1.000
    N215     N        0.99034    0.75872    0.44969    1.000
    N216     N        0.05190    0.50590    0.45873    1.000
    N217     N        0.02812    0.76068    0.27009    1.000
    N218     N        0.02242    0.55004    0.56780    1.000
    Si219    Si       0.00581    0.53665    0.60435    1.000
    Si220    Si       0.00102    0.57805    0.54326    1.000
    N221     N        0.02257    0.58970    0.50684    1.000
    N222     N        0.99727    0.61280    0.56640    1.000
    Si223    Si       0.04432    0.51141    0.56108    1.000
    Si224    Si       0.02032    0.63231    0.49922    1.000
    Si225    Si       0.02970    0.63154    0.58886    1.000
    N226     N        0.01314    0.67213    0.58128    1.000
    Si227    Si       0.00983    0.71443    0.56482    1.000
    N228     N        0.00346    0.72927    0.60413    1.000
    N229     N        0.04378    0.72573    0.54303    1.000
    N230     N        0.00489    0.54596    0.64651    1.000
    Si231    Si       0.04045    0.54323    0.67043    1.000
    N232     N        0.02263    0.62789    0.63071    1.000
    N233     N        0.04733    0.51735    0.70715    1.000
    Si234    Si       0.04771    0.62733    0.66769    1.000
    N235     N        0.04350    0.69700    0.65292    1.000
    N236     N        0.00795    0.64131    0.68861    1.000
    Si237    Si       0.01060    0.69208    0.62542    1.000
    Si238    Si       0.00833    0.64254    0.73073    1.000
    N239     N        0.01530    0.53690    0.76225    1.000
    N240     N        0.00323    0.52115    0.85469    1.000
    N241     N        0.01186    0.59157    0.86239    1.000
    Si242    Si       0.99549    0.57714    0.75902    1.000
    Si243    Si       0.99261    0.62867    0.84871    1.000
    N244     N        0.02439    0.60436    0.74386    1.000
    N245     N        0.00646    0.64504    0.81078    1.000
    Si246    Si       0.03322    0.71820    0.75851    1.000
    N247     N        0.04220    0.71138    0.80206    1.000
    N248     N        0.98814    0.72521    0.74978    1.000
    N249     N        0.03088    0.72534    0.86972    1.000
    Si250    Si       0.04324    0.66529    0.80240    1.000
    N251     N        0.03054    0.67180    0.75058    1.000
    Si252    Si       0.03562    0.51751    0.88309    1.000
    Si253    Si       0.00014    0.57288    0.93993    1.000
    N254     N        0.00446    0.54796    0.97706    1.000
    N255     N        0.04055    0.57543    0.92509    1.000
    Si256    Si       0.00645    0.75030    0.89474    1.000
    N257     N        0.04611    0.65001    0.98005    1.000
    Si258    Si       0.03489    0.68149    0.87791    1.000
    Si259    Si       0.00670    0.66947    0.97885    1.000
    N260     N        0.99665    0.66336    0.87694    1.000
    N261     N        0.01384    0.75678    0.93534    1.000
    N262     N        0.01541    0.71181    0.98356    1.000
    Si263    Si       0.00828    0.81537    0.01422    1.000
    N264     N        0.03086    0.77844    0.00352    1.000
    N265     N        0.01136    0.82478    0.11161    1.000
    N266     N        0.03885    0.84774    0.02471    1.000
    Si267    Si       0.01906    0.88864    0.02677    1.000
    Si268    Si       0.01253    0.95558    0.06291    1.000
    N269     N        0.02230    0.97746    0.09942    1.000
    N270     N        0.02267    0.97946    0.02853    1.000
    N271     N        0.02897    0.91509    0.06018    1.000
    Si272    Si       0.04673    0.91043    0.10070    1.000
    N273     N        0.00965    0.90135    0.12294    1.000
    N274     N        0.03263    0.91742    0.99705    1.000
    Si275    Si       0.02901    0.85910    0.13101    1.000
    N276     N        0.03265    0.80353    0.22167    1.000
    Si277    Si       0.01473    0.78285    0.12711    1.000
    N278     N        0.02485    0.84967    0.17201    1.000
    N279     N        0.04646    0.78087    0.15817    1.000
    N280     N        0.99353    0.90424    0.20768    1.000
    N281     N        0.00389    0.98974    0.16699    1.000
    Si282    Si       0.02916    0.92455    0.22329    1.000
    Si283    Si       0.04471    0.98711    0.17756    1.000
    Si284    Si       0.00014    0.00266    0.12488    1.000
    Si285    Si       0.05018    0.81675    0.18447    1.000
    N286     N        0.01941    0.75822    0.09297    1.000
    N287     N        0.03077    0.83290    0.28403    1.000
    N288     N        0.00768    0.79205    0.33164    1.000
    N289     N        0.02065    0.86892    0.34510    1.000
    Si290    Si       0.01017    0.83418    0.32211    1.000
    Si291    Si       0.03648    0.76739    0.31224    1.000
    Si292    Si       0.00553    0.81500    0.25353    1.000
    Si293    Si       0.99455    0.78152    0.36929    1.000
    N294     N        0.00308    0.89462    0.49814    1.000
    Si295    Si       0.01145    0.91255    0.34592    1.000
    Si296    Si       0.99752    0.98783    0.26886    1.000
    N297     N        0.03970    0.93667    0.32725    1.000
    N298     N        0.00566    0.94917    0.25054    1.000
    N299     N        0.01622    0.00705    0.30533    1.000
    Si300    Si       0.99710    0.79235    0.47613    1.000
    N301     N        0.03317    0.81241    0.46131    1.000
    N302     N        0.02576    0.77908    0.39850    1.000
    Si303    Si       0.03487    0.81701    0.41799    1.000
    N304     N        0.00022    0.84487    0.41390    1.000
    N305     N        0.04429    0.95487    0.44847    1.000
    N306     N        0.01328    0.91901    0.38905    1.000
    Si307    Si       0.03620    0.91866    0.47930    1.000
    N308     N        0.04054    0.89482    0.43895    1.000
    Si309    Si       0.00161    0.88639    0.41623    1.000
    Si310    Si       0.01133    0.86698    0.52983    1.000
    N311     N        0.99431    0.77443    0.51586    1.000
    Si312    Si       0.99436    0.76836    0.61568    1.000
    N313     N        0.00793    0.85474    0.61723    1.000
    N314     N        0.04451    0.83670    0.52719    1.000
    Si315    Si       0.03654    0.88295    0.60235    1.000
    N316     N        0.02847    0.89387    0.56019    1.000
    N317     N        0.99827    0.99827    0.60209    1.000
    N318     N        0.03723    0.95376    0.51446    1.000
    Si319    Si       0.99342    0.76699    0.73936    1.000
    N320     N        0.00047    0.76801    0.69660    1.000
    N321     N        0.02898    0.78346    0.63305    1.000
    Si322    Si       0.00924    0.84526    0.66003    1.000
    Si323    Si       0.03577    0.78122    0.67765    1.000
    N324     N        0.03853    0.82508    0.68522    1.000
    Si325    Si       0.00916    0.88628    0.72651    1.000
    N326     N        0.01992    0.97935    0.66266    1.000
    Si327    Si       0.03285    0.99573    0.62635    1.000
    N328     N        0.00334    0.88642    0.68251    1.000
    N329     N        0.00649    0.99319    0.72932    1.000
    Si330    Si       0.02389    0.93495    0.65620    1.000
    N331     N        0.01141    0.92688    0.74049    1.000
    Si332    Si       0.02455    0.80472    0.84903    1.000
    Si333    Si       0.00575    0.83196    0.77713    1.000
    N334     N        0.00515    0.83525    0.82072    1.000
    Si335    Si       0.03889    0.86121    0.82950    1.000
    N336     N        0.04069    0.77710    0.82151    1.000
    N337     N        0.03494    0.76402    0.75457    1.000
    N338     N        0.01433    0.88892    0.85117    1.000
    Si339    Si       0.01303    0.98093    0.82774    1.000
    Si340    Si       0.04008    0.92576    0.85399    1.000
    N341     N        0.00280    0.00843    0.79594    1.000
    N342     N        0.00115    0.00474    0.86087    1.000
    N343     N        0.04934    0.95859    0.82449    1.000
    Si344    Si       0.02732    0.78909    0.96102    1.000
    N345     N        0.99627    0.78787    0.87670    1.000
    Si346    Si       0.00495    0.86610    0.96537    1.000
    N347     N        0.00050    0.82185    0.96788    1.000
    N348     N        0.02373    0.97172    0.95470    1.000
    Si349    Si       0.99610    0.00474    0.94889    1.000
    Si350    Si       0.01382    0.95597    0.99341    1.000
    N351     N        0.01575    0.94593    0.88383    1.000
    Si352    Si       0.09202    0.07817    0.04915    1.000
    N353     N        0.08881    0.09915    0.01145    1.000
    N354     N        0.06268    0.03733    0.00591    1.000
    N355     N        0.05557    0.07685    0.07063    1.000
    Si356    Si       0.10090    0.01256    0.00414    1.000
    Si357    Si       0.06505    0.20174    0.09998    1.000
    N358     N        0.07155    0.17876    0.06123    1.000
    Si359    Si       0.09074    0.04051    0.14458    1.000
    Si360    Si       0.09251    0.10658    0.17361    1.000
    N361     N        0.06790    0.07494    0.15496    1.000
    N362     N        0.10093    0.09099    0.21200    1.000
    Si363    Si       0.07746    0.07735    0.24637    1.000
    N364     N        0.05066    0.01143    0.21459    1.000
    N365     N        0.05317    0.17642    0.24326    1.000
    Si366    Si       0.09542    0.18102    0.16661    1.000
    N367     N        0.10317    0.19754    0.12581    1.000
    Si368    Si       0.07361    0.21281    0.23165    1.000
    N369     N        0.07193    0.14413    0.16871    1.000
    N370     N        0.07043    0.20894    0.18808    1.000
    N371     N        0.07089    0.11037    0.27514    1.000
    Si372    Si       0.08782    0.09279    0.31098    1.000
    N373     N        0.07469    0.05025    0.31002    1.000
    N374     N        0.06641    0.10935    0.34618    1.000
    Si375    Si       0.10525    0.02630    0.29001    1.000
    N376     N        0.10209    0.04044    0.24804    1.000
    N377     N        0.07355    0.17032    0.30827    1.000
    Si378    Si       0.07793    0.15307    0.26735    1.000
    Si379    Si       0.06676    0.15245    0.34910    1.000
    N380     N        0.10444    0.17209    0.36428    1.000
    N381     N        0.04766    0.23971    0.32117    1.000
    Si382    Si       0.04734    0.06389    0.46882    1.000
    N383     N        0.08719    0.06945    0.45096    1.000
    Si384    Si       0.10291    0.10951    0.45696    1.000
    N385     N        0.04519    0.02030    0.48015    1.000
    Si386    Si       0.05563    0.16816    0.45632    1.000
    N387     N        0.07529    0.13669    0.47767    1.000
    N388     N        0.06341    0.25184    0.45876    1.000
    N389     N        0.07425    0.24983    0.38562    1.000
    Si390    Si       0.06099    0.22851    0.42167    1.000
    N391     N        0.08288    0.19219    0.43400    1.000
    N392     N        0.06693    0.11871    0.60761    1.000
    N393     N        0.09532    0.04386    0.59651    1.000
    N394     N        0.10040    0.11120    0.54166    1.000
    Si395    Si       0.06796    0.13005    0.51999    1.000
    N396     N        0.07750    0.15504    0.66998    1.000
    N397     N        0.04591    0.08740    0.50488    1.000
    N398     N        0.07752    0.17600    0.53284    1.000
    Si399    Si       0.08541    0.01624    0.73452    1.000
    N400     N        0.05314    0.09877    0.72044    1.000
    N401     N        0.09007    0.08165    0.66212    1.000
    Si402    Si       0.06816    0.11655    0.65071    1.000
    Si403    Si       0.08896    0.04375    0.64008    1.000
    N404     N        0.05768    0.03023    0.70515    1.000
    Si405    Si       0.08080    0.07006    0.70276    1.000
    Si406    Si       0.05653    0.23421    0.64296    1.000
    N407     N        0.09588    0.21631    0.63869    1.000
    Si408    Si       0.08994    0.07391    0.85502    1.000
    N409     N        0.10233    0.07528    0.81220    1.000
    Si410    Si       0.05592    0.12963    0.74921    1.000
    N411     N        0.05181    0.05322    0.86431    1.000
    N412     N        0.08667    0.13651    0.77820    1.000
    Si413    Si       0.08513    0.17913    0.79426    1.000
    Si414    Si       0.09241    0.21515    0.86857    1.000
    N415     N        0.10433    0.25900    0.86241    1.000
    N416     N        0.10310    0.20142    0.82831    1.000
    N417     N        0.04911    0.25469    0.81307    1.000
    Si418    Si       0.08568    0.11362    0.92056    1.000
    N419     N        0.08462    0.07774    0.94661    1.000
    Si420    Si       0.06356    0.07498    0.98431    1.000
    N421     N        0.10271    0.10628    0.88144    1.000
    Si422    Si       0.09328    0.13808    0.99020    1.000
    N423     N        0.10766    0.13980    0.94808    1.000
    N424     N        0.09498    0.22644    0.96315    1.000
    Si425    Si       0.05155    0.22021    0.96710    1.000
    N426     N        0.05240    0.15462    0.99014    1.000
    N427     N        0.04869    0.21792    0.86909    1.000
    N428     N        0.06910    0.37048    0.07906    1.000
    Si429    Si       0.05483    0.34053    0.10772    1.000
    N430     N        0.08554    0.35638    0.99489    1.000
    N431     N        0.05098    0.42069    0.03464    1.000
    N432     N        0.07314    0.46114    0.08982    1.000
    Si433    Si       0.08279    0.44482    0.05060    1.000
    N434     N        0.10036    0.47913    0.02975    1.000
    Si435    Si       0.08400    0.50196    0.10928    1.000
    Si436    Si       0.10642    0.39139    0.08598    1.000
    N437     N        0.09039    0.32420    0.12483    1.000
    N438     N        0.09184    0.36794    0.21097    1.000
    Si439    Si       0.07992    0.29195    0.15239    1.000
    N440     N        0.06011    0.31743    0.18089    1.000
    Si441    Si       0.08338    0.32580    0.21464    1.000
    N442     N        0.05255    0.25989    0.14125    1.000
    Si443    Si       0.05504    0.37363    0.23480    1.000
    Si444    Si       0.07546    0.44438    0.13086    1.000
    N445     N        0.07312    0.45034    0.21306    1.000
    Si446    Si       0.08947    0.48596    0.19199    1.000
    N447     N        0.08746    0.48445    0.14823    1.000
    N448     N        0.10584    0.41556    0.12229    1.000
    N449     N        0.08668    0.30006    0.33897    1.000
    Si450    Si       0.08014    0.31399    0.29499    1.000
    N451     N        0.08970    0.27547    0.27674    1.000
    N452     N        0.07064    0.36501    0.33128    1.000
    Si453    Si       0.08804    0.33835    0.36424    1.000
    Si454    Si       0.05647    0.26992    0.35062    1.000
    Si455    Si       0.04867    0.26073    0.28272    1.000
    Si456    Si       0.06791    0.38944    0.41270    1.000
    Si457    Si       0.09206    0.37979    0.29852    1.000
    N458     N        0.04802    0.46210    0.27886    1.000
    Si459    Si       0.07848    0.44077    0.25583    1.000
    Si460    Si       0.06221    0.49135    0.30734    1.000
    N461     N        0.08508    0.47448    0.34155    1.000
    N462     N        0.06960    0.39951    0.26693    1.000
    Si463    Si       0.10572    0.26165    0.46779    1.000
    N464     N        0.09306    0.36880    0.43850    1.000
    Si465    Si       0.08871    0.32455    0.43756    1.000
    N466     N        0.05055    0.35747    0.38701    1.000
    N467     N        0.05218    0.47328    0.40099    1.000
    Si468    Si       0.08743    0.45842    0.38194    1.000
    N469     N        0.09039    0.41484    0.38544    1.000
    N470     N        0.10828    0.34350    0.28161    1.000
    N471     N        0.10616    0.30503    0.47091    1.000
    N472     N        0.08787    0.28983    0.53756    1.000
    N473     N        0.07453    0.35310    0.50600    1.000
    Si474    Si       0.10115    0.32058    0.51048    1.000
    Si475    Si       0.09267    0.39269    0.50911    1.000
    Si476    Si       0.09637    0.42202    0.58255    1.000
    N477     N        0.05708    0.43933    0.57638    1.000
    N478     N        0.05527    0.41620    0.50623    1.000
    Si479    Si       0.06639    0.50185    0.49804    1.000
    N480     N        0.10083    0.47656    0.50705    1.000
    N481     N        0.10682    0.39509    0.55104    1.000
    N482     N        0.09730    0.40152    0.61903    1.000
    Si483    Si       0.06121    0.35577    0.67538    1.000
    N484     N        0.09041    0.33878    0.65008    1.000
    Si485    Si       0.09321    0.29466    0.64888    1.000
    N486     N        0.05986    0.34161    0.71977    1.000
    N487     N        0.05388    0.27762    0.64310    1.000
    N488     N        0.10640    0.28111    0.68754    1.000
    Si489    Si       0.09536    0.35277    0.74616    1.000
    Si490    Si       0.08563    0.50001    0.62176    1.000
    Si491    Si       0.10377    0.48382    0.72242    1.000
    N492     N        0.07162    0.46145    0.63619    1.000
    Si493    Si       0.07377    0.41457    0.71856    1.000
    N494     N        0.07409    0.45565    0.70793    1.000
    Si495    Si       0.09108    0.42667    0.65419    1.000
    N496     N        0.06721    0.39809    0.67862    1.000
    N497     N        0.08536    0.36460    0.78704    1.000
    N498     N        0.08074    0.35972    0.85352    1.000
    Si499    Si       0.07142    0.28106    0.84300    1.000
    N500     N        0.09478    0.30197    0.81288    1.000
    Si501    Si       0.10301    0.34343    0.82087    1.000
    N502     N        0.08244    0.26451    0.74974    1.000
    Si503    Si       0.06736    0.40285    0.79396    1.000
    N504     N        0.09170    0.43394    0.81356    1.000
    Si505    Si       0.06732    0.46691    0.83154    1.000
    N506     N        0.09443    0.50193    0.82809    1.000
    N507     N        0.08692    0.50003    0.75910    1.000
    N508     N        0.05011    0.41663    0.75605    1.000
    N509     N        0.05493    0.30364    0.87702    1.000
    N510     N        0.08944    0.28985    0.98776    1.000
    Si511    Si       0.05687    0.36022    0.96355    1.000
    N512     N        0.07220    0.36277    0.92240    1.000
    Si513    Si       0.08430    0.33819    0.88955    1.000
    Si514    Si       0.06098    0.40456    0.92070    1.000
    N515     N        0.04688    0.47247    0.87122    1.000
    Si516    Si       0.07528    0.47743    0.90695    1.000
    N517     N        0.08507    0.43975    0.92429    1.000
    Si518    Si       0.06755    0.62446    0.00948    1.000
    N519     N        0.05358    0.53713    0.10964    1.000
    N520     N        0.05432    0.62020    0.10179    1.000
    N521     N        0.10429    0.58212    0.11294    1.000
    Si522    Si       0.06520    0.65906    0.08080    1.000
    Si523    Si       0.05541    0.73448    0.08328    1.000
    N524     N        0.05570    0.73342    0.03959    1.000
    N525     N        0.05083    0.64899    0.04341    1.000
    N526     N        0.09132    0.75531    0.09851    1.000
    Si527    Si       0.06204    0.57821    0.12434    1.000
    N528     N        0.06470    0.58648    0.16703    1.000
    N529     N        0.07219    0.52406    0.20102    1.000
    Si530    Si       0.09131    0.56371    0.19303    1.000
    Si531    Si       0.07580    0.62896    0.18537    1.000
    N532     N        0.10196    0.60340    0.21150    1.000
    Si533    Si       0.05764    0.74010    0.17397    1.000
    N534     N        0.09520    0.64552    0.15023    1.000
    N535     N        0.06619    0.74216    0.21810    1.000
    Si536    Si       0.06962    0.69811    0.23008    1.000
    N537     N        0.09439    0.71845    0.16056    1.000
    N538     N        0.09521    0.66759    0.21023    1.000
    Si539    Si       0.09969    0.50980    0.99905    1.000
    N540     N        0.06526    0.58297    0.34107    1.000
    N541     N        0.07385    0.57043    0.27296    1.000
    Si542    Si       0.08882    0.59911    0.30546    1.000
    N543     N        0.10082    0.50888    0.29070    1.000
    N544     N        0.09738    0.63160    0.27623    1.000
    N545     N        0.09448    0.63574    0.33723    1.000
    N546     N        0.08691    0.69682    0.26961    1.000
    Si547    Si       0.07849    0.71715    0.34877    1.000
    Si548    Si       0.08019    0.66555    0.29997    1.000
    N549     N        0.09663    0.75301    0.36662    1.000
    Si550    Si       0.07522    0.61334    0.37047    1.000
    N551     N        0.06141    0.58399    0.44941    1.000
    N552     N        0.09521    0.53178    0.41525    1.000
    Si553    Si       0.09618    0.57233    0.42888    1.000
    Si554    Si       0.05493    0.51290    0.41656    1.000
    N555     N        0.07038    0.69807    0.38751    1.000
    N556     N        0.10757    0.59949    0.39685    1.000
    N557     N        0.08822    0.71456    0.49306    1.000
    Si558    Si       0.09550    0.72992    0.40475    1.000
    Si559    Si       0.08896    0.75507    0.47284    1.000
    N560     N        0.06722    0.74571    0.43450    1.000
    N561     N        0.10815    0.69495    0.32854    1.000
    N562     N        0.09089    0.60832    0.50805    1.000
    N563     N        0.07702    0.53993    0.51566    1.000
    Si564    Si       0.09888    0.61285    0.60668    1.000
    N565     N        0.08387    0.51097    0.57800    1.000
    N566     N        0.06911    0.62624    0.57581    1.000
    Si567    Si       0.10787    0.53925    0.55399    1.000
    N568     N        0.10655    0.57049    0.58987    1.000
    N569     N        0.04788    0.65891    0.51942    1.000
    Si570    Si       0.08223    0.63923    0.53655    1.000
    N571     N        0.08611    0.73831    0.61801    1.000
    Si572    Si       0.04891    0.70040    0.50801    1.000
    N573     N        0.04758    0.58490    0.68183    1.000
    N574     N        0.07709    0.53203    0.64935    1.000
    Si575    Si       0.06238    0.59806    0.72132    1.000
    N576     N        0.08490    0.56513    0.73757    1.000
    N577     N        0.08844    0.62734    0.64906    1.000
    Si578    Si       0.07452    0.75684    0.54368    1.000
    Si579    Si       0.07548    0.66821    0.74239    1.000
    N580     N        0.07158    0.63984    0.70739    1.000
    Si581    Si       0.07911    0.72032    0.65729    1.000
    N582     N        0.07453    0.71366    0.73960    1.000
    Si583    Si       0.10677    0.65310    0.68454    1.000
    Si584    Si       0.06340    0.57755    0.49372    1.000
    Si585    Si       0.10617    0.52665    0.86283    1.000
    N586     N        0.06545    0.54532    0.87070    1.000
    N587     N        0.08037    0.65346    0.78340    1.000
    N588     N        0.05911    0.66373    0.84576    1.000
    N589     N        0.09745    0.74185    0.83971    1.000
    Si590    Si       0.09326    0.64599    0.86428    1.000
    Si591    Si       0.05371    0.73666    0.83491    1.000
    N592     N        0.06767    0.53772    0.98854    1.000
    N593     N        0.07972    0.61186    0.88779    1.000
    Si594    Si       0.06246    0.54175    0.94468    1.000
    N595     N        0.09922    0.62492    0.95068    1.000
    N596     N        0.10325    0.55398    0.93307    1.000
    Si597    Si       0.04879    0.58349    0.88228    1.000
    Si598    Si       0.09432    0.70097    0.91033    1.000
    Si599    Si       0.07414    0.65895    0.94860    1.000
    N600     N        0.09471    0.74765    0.98362    1.000
    N601     N        0.05814    0.67795    0.91229    1.000
    N602     N        0.09257    0.74412    0.90800    1.000
    Si603    Si       0.10768    0.59616    0.92060    1.000
    Si604    Si       0.05788    0.53009    0.74765    1.000
    Si605    Si       0.08129    0.84003    0.02518    1.000
    N606     N        0.08840    0.79972    0.04236    1.000
    N607     N        0.06401    0.87104    0.10720    1.000
    Si608    Si       0.07240    0.76761    0.01749    1.000
    N609     N        0.04937    0.94717    0.19160    1.000
    N610     N        0.08504    0.99247    0.07906    1.000
    Si611    Si       0.06385    0.97838    0.11066    1.000
    N612     N        0.07364    0.93701    0.11953    1.000
    N613     N        0.09476    0.81997    0.18317    1.000
    Si614    Si       0.05812    0.77627    0.24344    1.000
    N615     N        0.06788    0.00337    0.14431    1.000
    Si616    Si       0.08553    0.99972    0.23650    1.000
    N617     N        0.07041    0.90913    0.23690    1.000
    Si618    Si       0.08907    0.93267    0.20462    1.000
    Si619    Si       0.10510    0.86602    0.09262    1.000
    N620     N        0.10111    0.91731    0.99706    1.000
    N621     N        0.07155    0.79321    0.31691    1.000
    Si622    Si       0.07335    0.82993    0.28682    1.000
    N623     N        0.09738    0.86629    0.29221    1.000
    N624     N        0.08767    0.80694    0.25337    1.000
    Si625    Si       0.10760    0.77983    0.33641    1.000
    Si626    Si       0.07761    0.95072    0.34097    1.000
    N627     N        0.07555    0.99195    0.34867    1.000
    N628     N        0.09864    0.98568    0.27661    1.000
    N629     N        0.07137    0.83954    0.40765    1.000
    Si630    Si       0.07664    0.86839    0.44084    1.000
    N631     N        0.09431    0.84225    0.47390    1.000
    Si632    Si       0.06241    0.81817    0.49238    1.000
    N633     N        0.08353    0.94267    0.38702    1.000
    Si634    Si       0.09483    0.98509    0.38742    1.000
    N635     N        0.10953    0.93057    0.31945    1.000
    Si636    Si       0.10432    0.88958    0.25643    1.000
    Si637    Si       0.04624    0.99878    0.44260    1.000
    Si638    Si       0.04907    0.92910    0.41222    1.000
    N639     N        0.08307    0.00779    0.42211    1.000
    N640     N        0.07157    0.78861    0.57198    1.000
    N641     N        0.07392    0.85675    0.59549    1.000
    Si642    Si       0.07305    0.82959    0.56003    1.000
    N643     N        0.07593    0.77987    0.50537    1.000
    Si644    Si       0.09915    0.87220    0.51105    1.000
    Si645    Si       0.07049    0.77899    0.61460    1.000
    N646     N        0.04802    0.91804    0.62348    1.000
    N647     N        0.06777    0.90045    0.50165    1.000
    N648     N        0.08601    0.93201    0.56229    1.000
    Si649    Si       0.08024    0.93897    0.60408    1.000
    N650     N        0.06380    0.97734    0.60386    1.000
    Si651    Si       0.05316    0.92283    0.53884    1.000
    N652     N        0.09474    0.99195    0.52974    1.000
    Si653    Si       0.05252    0.99725    0.51639    1.000
    Si654    Si       0.08247    0.00449    0.57558    1.000
    N655     N        0.09685    0.80602    0.63499    1.000
    N656     N        0.08839    0.87108    0.66526    1.000
    Si657    Si       0.07055    0.84920    0.70028    1.000
    Si658    Si       0.09830    0.84877    0.63019    1.000
    N659     N        0.05650    0.87936    0.72921    1.000
    N660     N        0.10442    0.82117    0.71295    1.000
    N661     N        0.05557    0.93077    0.68746    1.000
    Si662    Si       0.09098    0.91499    0.66789    1.000
    Si663    Si       0.05469    0.92342    0.72954    1.000
    N664     N        0.07260    0.75965    0.67958    1.000
    Si665    Si       0.07391    0.86470    0.76874    1.000
    Si666    Si       0.05719    0.78698    0.78380    1.000
    N667     N        0.09934    0.77837    0.77861    1.000
    N668     N        0.05807    0.83258    0.85751    1.000
    N669     N        0.04736    0.82977    0.77432    1.000
    N670     N        0.06772    0.88485    0.80754    1.000
    Si671    Si       0.07407    0.97167    0.79135    1.000
    Si672    Si       0.09906    0.89803    0.83462    1.000
    N673     N        0.08114    0.94525    0.75443    1.000
    N674     N        0.06142    0.00736    0.76871    1.000
    N675     N        0.07628    0.90988    0.86939    1.000
    Si676    Si       0.09719    0.83872    0.87558    1.000
    N677     N        0.06732    0.79983    0.94670    1.000
    Si678    Si       0.07641    0.84287    0.95131    1.000
    N679     N        0.09211    0.85925    0.91313    1.000
    Si680    Si       0.09725    0.76772    0.94273    1.000
    N681     N        0.10071    0.83963    0.98701    1.000
    N682     N        0.04752    0.87165    0.95917    1.000
    Si683    Si       0.06420    0.97242    0.93817    1.000
    N684     N        0.08838    0.98498    0.97185    1.000
    Si685    Si       0.09535    0.90137    0.90730    1.000
    N686     N        0.06902    0.99931    0.90226    1.000
    Si687    Si       0.06698    0.90854    0.97236    1.000
    N688     N        0.07894    0.93022    0.93591    1.000
    Si689    Si       0.10721    0.00402    0.88561    1.000
    Si690    Si       0.13713    0.08626    0.10907    1.000
    Si691    Si       0.15392    0.05126    0.01896    1.000
    N692     N        0.12130    0.10391    0.07143    1.000
    N693     N        0.12134    0.04524    0.11035    1.000
    N694     N        0.11638    0.04341    0.04227    1.000
    Si695    Si       0.12129    0.01758    0.07760    1.000
    Si696    Si       0.14182    0.12507    0.04003    1.000
    N697     N        0.16473    0.09480    0.01563    1.000
    N698     N        0.14214    0.19119    0.07088    1.000
    Si699    Si       0.14451    0.19354    0.11309    1.000
    N700     N        0.12197    0.15721    0.01703    1.000
    Si701    Si       0.10965    0.19241    0.04187    1.000
    N702     N        0.11054    0.23492    0.03130    1.000
    N703     N        0.16620    0.23109    0.12103    1.000
    Si704    Si       0.12504    0.05471    0.21159    1.000
    N705     N        0.12743    0.10505    0.14721    1.000
    N706     N        0.11946    0.03161    0.17618    1.000
    Si707    Si       0.13970    0.18322    0.22693    1.000
    N708     N        0.16674    0.15729    0.12679    1.000
    Si709    Si       0.15477    0.13785    0.16358    1.000
    N710     N        0.13261    0.16991    0.18391    1.000
    N711     N        0.11498    0.21912    0.24262    1.000
    N712     N        0.13022    0.09618    0.30040    1.000
    N713     N        0.13813    0.03070    0.31649    1.000
    Si714    Si       0.15979    0.06872    0.31584    1.000
    Si715    Si       0.14589    0.13144    0.28212    1.000
    N716     N        0.15093    0.15977    0.31417    1.000
    N717     N        0.11974    0.22207    0.31237    1.000
    Si718    Si       0.15606    0.24069    0.32742    1.000
    N719     N        0.12043    0.15354    0.25469    1.000
    Si720    Si       0.11497    0.18175    0.32386    1.000
    Si721    Si       0.12143    0.24674    0.27446    1.000
    N722     N        0.13269    0.02352    0.47475    1.000
    N723     N        0.13587    0.10043    0.48199    1.000
    N724     N        0.15170    0.04871    0.41828    1.000
    Si725    Si       0.11172    0.03673    0.43790    1.000
    N726     N        0.14835    0.18775    0.40954    1.000
    N727     N        0.12529    0.24905    0.43226    1.000
    Si728    Si       0.16155    0.22452    0.43015    1.000
    N729     N        0.10767    0.13038    0.42090    1.000
    Si730    Si       0.10935    0.17105    0.40665    1.000
    N731     N        0.13580    0.05054    0.53949    1.000
    Si732    Si       0.13506    0.09136    0.52481    1.000
    N733     N        0.13858    0.09759    0.59573    1.000
    Si734    Si       0.13343    0.05710    0.58224    1.000
    Si735    Si       0.13171    0.01422    0.51586    1.000
    Si736    Si       0.10504    0.24834    0.71505    1.000
    N737     N        0.15084    0.18229    0.52846    1.000
    Si738    Si       0.12394    0.23863    0.61138    1.000
    N739     N        0.11939    0.16409    0.58641    1.000
    N740     N        0.12563    0.24580    0.50460    1.000
    Si741    Si       0.11397    0.19084    0.55249    1.000
    N742     N        0.11356    0.22992    0.57050    1.000
    Si743    Si       0.14970    0.17686    0.61237    1.000
    Si744    Si       0.16029    0.21950    0.50754    1.000
    N745     N        0.12372    0.01912    0.65328    1.000
    Si746    Si       0.14305    0.01949    0.69161    1.000
    N747     N        0.16125    0.21823    0.61935    1.000
    Si748    Si       0.14558    0.19515    0.73495    1.000
    N749     N        0.14218    0.16222    0.65213    1.000
    N750     N        0.11419    0.20767    0.70610    1.000
    N751     N        0.15661    0.15892    0.71534    1.000
    Si752    Si       0.10562    0.12333    0.58513    1.000
    Si753    Si       0.11021    0.18506    0.66827    1.000
    N754     N        0.10321    0.05519    0.73876    1.000
    N755     N        0.15201    0.03628    0.78493    1.000
    N756     N        0.14581    0.10275    0.76153    1.000
    Si757    Si       0.11853    0.11270    0.79563    1.000
    N758     N        0.11454    0.03622    0.85678    1.000
    Si759    Si       0.11662    0.03371    0.81168    1.000
    Si760    Si       0.14194    0.11826    0.86730    1.000
    N761     N        0.14242    0.13245    0.82531    1.000
    Si762    Si       0.14355    0.06231    0.75012    1.000
    Si763    Si       0.11138    0.25317    0.99273    1.000
    Si764    Si       0.14063    0.21418    0.80559    1.000
    N765     N        0.12277    0.19261    0.77135    1.000
    N766     N        0.14585    0.25656    0.78924    1.000
    Si767    Si       0.15334    0.04332    0.87754    1.000
    N768     N        0.13281    0.03621    0.98119    1.000
    Si769    Si       0.12302    0.06182    0.94538    1.000
    N770     N        0.13129    0.03034    0.91508    1.000
    N771     N        0.15920    0.08491    0.94693    1.000
    Si772    Si       0.15211    0.00880    0.94826    1.000
    N773     N        0.15396    0.19266    0.94725    1.000
    N774     N        0.11123    0.19669    0.90103    1.000
    N775     N        0.15992    0.14559    0.89507    1.000
    Si776    Si       0.12498    0.22185    0.93300    1.000
    Si777    Si       0.13382    0.16433    0.92180    1.000
    N778     N        0.13905    0.36293    0.08878    1.000
    N779     N        0.12440    0.30676    0.04085    1.000
    N780     N        0.14529    0.35935    0.01554    1.000
    Si781    Si       0.15098    0.33875    0.05326    1.000
    Si782    Si       0.12818    0.26579    0.05591    1.000
    Si783    Si       0.11495    0.32339    0.99961    1.000
    N784     N        0.11029    0.26174    0.09332    1.000
    N785     N        0.11561    0.41501    0.04789    1.000
    Si786    Si       0.13130    0.49977    0.05213    1.000
    Si787    Si       0.15945    0.43234    0.04032    1.000
    Si788    Si       0.10925    0.38777    0.01097    1.000
    N789     N        0.16332    0.47178    0.05930    1.000
    N790     N        0.14159    0.41810    0.19117    1.000
    N791     N        0.15781    0.30400    0.11355    1.000
    Si792    Si       0.13984    0.26707    0.12599    1.000
    Si793    Si       0.13135    0.33724    0.12628    1.000
    N794     N        0.13774    0.36372    0.15897    1.000
    N795     N        0.12303    0.31208    0.22348    1.000
    N796     N        0.12086    0.27620    0.16413    1.000
    Si797    Si       0.14799    0.29070    0.19442    1.000
    Si798    Si       0.13554    0.37643    0.20143    1.000
    N799     N        0.16446    0.36782    0.23447    1.000
    Si800    Si       0.13952    0.40661    0.14820    1.000
    N801     N        0.13164    0.48576    0.20559    1.000
    Si802    Si       0.14559    0.44895    0.22267    1.000
    N803     N        0.17001    0.26589    0.22403    1.000
    Si804    Si       0.14363    0.33522    0.25756    1.000
    N805     N        0.12539    0.35997    0.36812    1.000
    N806     N        0.14813    0.25904    0.36646    1.000
    N807     N        0.15979    0.26118    0.29044    1.000
    N808     N        0.12924    0.40156    0.48714    1.000
    Si809    Si       0.14402    0.43469    0.29429    1.000
    N810     N        0.12168    0.44402    0.25807    1.000
    Si811    Si       0.12221    0.49410    0.32602    1.000
    Si812    Si       0.12062    0.40087    0.35920    1.000
    N813     N        0.15746    0.47157    0.31370    1.000
    N814     N        0.11501    0.41074    0.31746    1.000
    N815     N        0.16124    0.41730    0.36460    1.000
    N816     N        0.10980    0.30998    0.40223    1.000
    Si817    Si       0.14625    0.33419    0.39635    1.000
    Si818    Si       0.11481    0.26740    0.39289    1.000
    N819     N        0.15604    0.35066    0.43395    1.000
    N820     N        0.12613    0.47250    0.39283    1.000
    N821     N        0.15337    0.42173    0.43490    1.000
    Si822    Si       0.15877    0.44496    0.39859    1.000
    Si823    Si       0.13147    0.38388    0.44607    1.000
    N824     N        0.13480    0.34729    0.59122    1.000
    N825     N        0.13755    0.34041    0.52244    1.000
    Si826    Si       0.13935    0.36851    0.55522    1.000
    Si827    Si       0.15209    0.30759    0.59662    1.000
    N828     N        0.15582    0.28377    0.56084    1.000
    Si829    Si       0.12199    0.26390    0.54408    1.000
    Si830    Si       0.13498    0.47155    0.53272    1.000
    N831     N        0.12621    0.45305    0.57672    1.000
    Si832    Si       0.14556    0.48760    0.59203    1.000
    N833     N        0.10850    0.39446    0.73503    1.000
    N834     N        0.12307    0.28273    0.61914    1.000
    Si835    Si       0.11693    0.36305    0.62813    1.000
    N836     N        0.15228    0.36910    0.65500    1.000
    Si837    Si       0.14031    0.29930    0.71025    1.000
    N838     N        0.14885    0.26113    0.72509    1.000
    N839     N        0.14060    0.46003    0.73217    1.000
    N840     N        0.13413    0.43744    0.66408    1.000
    Si841    Si       0.14280    0.41819    0.74481    1.000
    N842     N        0.12900    0.50146    0.63156    1.000
    Si843    Si       0.16318    0.49417    0.71925    1.000
    Si844    Si       0.15619    0.47058    0.65178    1.000
    Si845    Si       0.16381    0.40755    0.67560    1.000
    N846     N        0.12176    0.31806    0.74562    1.000
    N847     N        0.14733    0.35028    0.82393    1.000
    Si848    Si       0.15652    0.33614    0.86414    1.000
    Si849    Si       0.11281    0.28422    0.77673    1.000
    N850     N        0.11337    0.49669    0.89586    1.000
    Si851    Si       0.13557    0.43486    0.81839    1.000
    N852     N        0.15254    0.40897    0.78599    1.000
    N853     N        0.15340    0.47588    0.80578    1.000
    N854     N        0.15177    0.43254    0.85889    1.000
    Si855    Si       0.11951    0.50328    0.79307    1.000
    N856     N        0.12271    0.31996    0.88933    1.000
    Si857    Si       0.13716    0.27917    0.88223    1.000
    N858     N        0.14477    0.32196    0.96707    1.000
    Si859    Si       0.15945    0.28582    0.95034    1.000
    N860     N        0.14176    0.25989    0.92017    1.000
    N861     N        0.15461    0.25940    0.98492    1.000
    N862     N        0.15337    0.44886    0.92956    1.000
    N863     N        0.11472    0.41654    0.97939    1.000
    N864     N        0.11531    0.49230    0.96373    1.000
    Si865    Si       0.11704    0.44900    0.95134    1.000
    Si866    Si       0.14816    0.46425    0.88976    1.000
    N867     N        0.12853    0.53282    0.02357    1.000
    Si868    Si       0.13550    0.55602    0.09936    1.000
    Si869    Si       0.13769    0.57542    0.02262    1.000
    N870     N        0.14802    0.57882    0.06537    1.000
    N871     N        0.12025    0.51656    0.09132    1.000
    N872     N        0.15629    0.62451    0.11249    1.000
    Si873    Si       0.11130    0.62557    0.11358    1.000
    N874     N        0.10766    0.60708    0.01131    1.000
    Si875    Si       0.14069    0.67138    0.05275    1.000
    N876     N        0.12077    0.67589    0.01368    1.000
    N877     N        0.10904    0.65491    0.08063    1.000
    Si878    Si       0.14893    0.52478    0.20569    1.000
    N879     N        0.13180    0.55409    0.17726    1.000
    N880     N        0.13659    0.54219    0.24220    1.000
    N881     N        0.16141    0.70818    0.05550    1.000
    N882     N        0.15850    0.72877    0.19980    1.000
    Si883    Si       0.11479    0.67963    0.17192    1.000
    Si884    Si       0.11621    0.63539    0.23675    1.000
    N885     N        0.15023    0.72108    0.12468    1.000
    Si886    Si       0.11624    0.74541    0.13424    1.000
    N887     N        0.15724    0.66707    0.16772    1.000
    Si888    Si       0.16663    0.73745    0.08784    1.000
    N889     N        0.13569    0.52492    0.35324    1.000
    N890     N        0.12447    0.57387    0.30634    1.000
    Si891    Si       0.15538    0.55785    0.33249    1.000
    Si892    Si       0.11033    0.54697    0.27392    1.000
    Si893    Si       0.12145    0.71447    0.29067    1.000
    Si894    Si       0.12814    0.66130    0.34392    1.000
    N895     N        0.15789    0.70787    0.26809    1.000
    N896     N        0.14713    0.65507    0.38193    1.000
    Si897    Si       0.15862    0.75121    0.43359    1.000
    N898     N        0.12435    0.75656    0.30111    1.000
    Si899    Si       0.12892    0.51749    0.39561    1.000
    N900     N        0.13830    0.71776    0.41406    1.000
    Si901    Si       0.14809    0.61227    0.38873    1.000
    N902     N        0.12785    0.57557    0.45997    1.000
    N903     N        0.15761    0.63968    0.24687    1.000
    N904     N        0.13897    0.56448    0.52951    1.000
    N905     N        0.14247    0.61796    0.60495    1.000
    Si906    Si       0.14931    0.57607    0.61042    1.000
    Si907    Si       0.12850    0.59209    0.49801    1.000
    N908     N        0.15986    0.62377    0.50391    1.000
    Si909    Si       0.12148    0.73228    0.59386    1.000
    Si910    Si       0.11940    0.70681    0.52123    1.000
    N911     N        0.11490    0.66562    0.53849    1.000
    N912     N        0.14345    0.69575    0.60336    1.000
    N913     N        0.11093    0.73666    0.55259    1.000
    Si914    Si       0.15744    0.65857    0.52615    1.000
    N915     N        0.16023    0.69715    0.50364    1.000
    Si916    Si       0.14830    0.64195    0.73636    1.000
    Si917    Si       0.16265    0.59247    0.68068    1.000
    Si918    Si       0.11942    0.53245    0.66250    1.000
    N919     N        0.14618    0.56596    0.65215    1.000
    N920     N        0.14014    0.62880    0.69189    1.000
    N921     N        0.12560    0.51596    0.70357    1.000
    Si922    Si       0.12777    0.56640    0.74668    1.000
    N923     N        0.16237    0.57503    0.72014    1.000
    N924     N        0.11284    0.69275    0.66476    1.000
    Si925    Si       0.15277    0.69267    0.64688    1.000
    Si926    Si       0.11813    0.71668    0.73625    1.000
    N927     N        0.11872    0.67414    0.72760    1.000
    N928     N        0.14371    0.50794    0.55636    1.000
    N929     N        0.13743    0.53894    0.77852    1.000
    Si930    Si       0.14586    0.59868    0.85833    1.000
    N931     N        0.12547    0.60954    0.75816    1.000
    N932     N        0.11826    0.62464    0.83520    1.000
    N933     N        0.14120    0.55190    0.85978    1.000
    Si934    Si       0.11881    0.63183    0.79409    1.000
    N935     N        0.15246    0.65745    0.78075    1.000
    N936     N        0.13826    0.72191    0.77544    1.000
    Si937    Si       0.11947    0.75059    0.80315    1.000
    N938     N        0.14468    0.60755    0.90112    1.000
    Si939    Si       0.12906    0.51738    0.93017    1.000
    N940     N        0.11585    0.68006    0.88026    1.000
    N941     N        0.15471    0.73670    0.88062    1.000
    Si942    Si       0.11718    0.75954    0.87473    1.000
    N943     N        0.15760    0.73074    0.98987    1.000
    Si944    Si       0.12548    0.63898    0.98581    1.000
    Si945    Si       0.11922    0.71200    0.98677    1.000
    Si946    Si       0.15478    0.69467    0.87368    1.000
    N947     N        0.10371    0.69030    0.95131    1.000
    N948     N        0.14928    0.77404    0.06966    1.000
    N949     N        0.15604    0.87386    0.99850    1.000
    N950     N        0.11522    0.82476    0.10690    1.000
    Si951    Si       0.11001    0.79003    0.07968    1.000
    N952     N        0.16192    0.80353    0.00439    1.000
    N953     N        0.10645    0.97215    0.20992    1.000
    N954     N        0.12810    0.89894    0.11109    1.000
    Si955    Si       0.12830    0.89572    0.02259    1.000
    N956     N        0.14972    0.92029    0.05300    1.000
    N957     N        0.12670    0.97936    0.01620    1.000
    N958     N        0.15542    0.99027    0.07279    1.000
    Si959    Si       0.15927    0.96002    0.03690    1.000
    Si960    Si       0.16416    0.90769    0.09158    1.000
    N961     N        0.15296    0.85244    0.15791    1.000
    N962     N        0.12441    0.86567    0.22509    1.000
    N963     N        0.13616    0.77731    0.15402    1.000
    Si964    Si       0.12373    0.81998    0.15008    1.000
    N965     N        0.14706    0.79567    0.22502    1.000
    Si966    Si       0.11404    0.82225    0.22235    1.000
    Si967    Si       0.15981    0.77037    0.19138    1.000
    Si968    Si       0.13149    0.98876    0.17878    1.000
    Si969    Si       0.11360    0.93091    0.13618    1.000
    Si970    Si       0.14224    0.88142    0.18947    1.000
    N971     N        0.11222    0.91059    0.17620    1.000
    N972     N        0.13271    0.97083    0.13927    1.000
    N973     N        0.10585    0.86771    0.04866    1.000
    N974     N        0.12564    0.81667    0.34828    1.000
    N975     N        0.16008    0.87501    0.32026    1.000
    Si976    Si       0.16047    0.83186    0.32776    1.000
    N977     N        0.11235    0.87931    0.36649    1.000
    Si978    Si       0.16469    0.77018    0.29710    1.000
    N979     N        0.16628    0.81312    0.28973    1.000
    N980     N        0.16228    0.97167    0.30615    1.000
    Si981    Si       0.11860    0.88801    0.32286    1.000
    Si982    Si       0.12678    0.95303    0.28793    1.000
    N983     N        0.13792    0.92169    0.25895    1.000
    Si984    Si       0.15710    0.99830    0.34030    1.000
    N985     N        0.15841    0.93092    0.40056    1.000
    N986     N        0.11211    0.89480    0.43541    1.000
    N987     N        0.13865    0.83272    0.41579    1.000
    Si988    Si       0.12844    0.81636    0.45683    1.000
    N989     N        0.15893    0.83618    0.48179    1.000
    N990     N        0.12458    0.77195    0.45346    1.000
    Si991    Si       0.11056    0.83842    0.38221    1.000
    Si992    Si       0.14151    0.87981    0.46440    1.000
    N993     N        0.13766    0.98592    0.37804    1.000
    Si994    Si       0.11879    0.91266    0.39675    1.000
    Si995    Si       0.15308    0.83078    0.52441    1.000
    N996     N        0.14388    0.76915    0.60240    1.000
    N997     N        0.10947    0.84152    0.53907    1.000
    N998     N        0.12115    0.92641    0.69795    1.000
    N999     N        0.13534    0.89375    0.50538    1.000
    Si1000   Si       0.12437    0.95843    0.55198    1.000
    N1001    N        0.12210    0.98374    0.58711    1.000
    N1002    N        0.15145    0.92378    0.56948    1.000
    N1003    N        0.15729    0.97798    0.52851    1.000
    Si1004   Si       0.15318    0.93084    0.61619    1.000
    Si1005   Si       0.14648    0.00130    0.61944    1.000
    N1006    N        0.14075    0.84987    0.62589    1.000
    Si1007   Si       0.14335    0.80514    0.62725    1.000
    N1008    N        0.14939    0.79173    0.66762    1.000
    Si1009   Si       0.13688    0.84832    0.73314    1.000
    Si1010   Si       0.10856    0.78468    0.68197    1.000
    N1011    N        0.11243    0.92978    0.63234    1.000
    N1012    N        0.11697    0.99461    0.71811    1.000
    Si1013   Si       0.16130    0.91162    0.68763    1.000
    Si1014   Si       0.11641    0.95313    0.73164    1.000
    N1015    N        0.16557    0.87184    0.71032    1.000
    N1016    N        0.12322    0.75600    0.71719    1.000
    Si1017   Si       0.11875    0.79026    0.74317    1.000
    N1018    N        0.12481    0.86504    0.84741    1.000
    N1019    N        0.11810    0.87439    0.76374    1.000
    N1020    N        0.15364    0.77140    0.81767    1.000
    N1021    N        0.15450    0.81226    0.75134    1.000
    N1022    N        0.14358    0.96593    0.94537    1.000
    N1023    N        0.10917    0.99087    0.80861    1.000
    N1024    N        0.12130    0.92849    0.81578    1.000
    Si1025   Si       0.13698    0.96608    0.83063    1.000
    Si1026   Si       0.14080    0.90793    0.78186    1.000
    N1027    N        0.15139    0.94303    0.75620    1.000
    N1028    N        0.12292    0.80360    0.88275    1.000
    N1029    N        0.13880    0.77866    0.94366    1.000
    Si1030   Si       0.14445    0.83756    0.98093    1.000
    Si1031   Si       0.15220    0.80573    0.91361    1.000
    N1032    N        0.15507    0.84032    0.93830    1.000
    N1033    N        0.13919    0.90770    0.90799    1.000
    Si1034   Si       0.12229    0.95249    0.98098    1.000
    N1035    N        0.13110    0.96974    0.87388    1.000
    Si1036   Si       0.15339    0.95068    0.90705    1.000
    N1037    N        0.18552    0.04593    0.04977    1.000
    Si1038   Si       0.19337    0.08914    0.05183    1.000
    N1039    N        0.18097    0.08919    0.10109    1.000
    N1040    N        0.19462    0.01314    0.11341    1.000
    Si1041   Si       0.20407    0.05600    0.12217    1.000
    Si1042   Si       0.19736    0.00610    0.06810    1.000
    Si1043   Si       0.19018    0.13151    0.10167    1.000
    N1044    N        0.17953    0.13847    0.05860    1.000
    Si1045   Si       0.17989    0.18183    0.05181    1.000
    N1046    N        0.18197    0.20080    0.01255    1.000
    N1047    N        0.21336    0.20662    0.07107    1.000
    Si1048   Si       0.19542    0.24215    0.08845    1.000
    Si1049   Si       0.18408    0.24376    0.01396    1.000
    N1050    N        0.17124    0.25830    0.05427    1.000
    N1051    N        0.22108    0.25856    0.99823    1.000
    N1052    N        0.21560    0.24289    0.18768    1.000
    Si1053   Si       0.22087    0.09492    0.18537    1.000
    Si1054   Si       0.19283    0.03401    0.19619    1.000
    N1055    N        0.20562    0.06167    0.16265    1.000
    N1056    N        0.18839    0.12617    0.18643    1.000
    N1057    N        0.18208    0.18862    0.22576    1.000
    Si1058   Si       0.20769    0.16136    0.20427    1.000
    Si1059   Si       0.19435    0.22955    0.22344    1.000
    N1060    N        0.16552    0.05528    0.22082    1.000
    N1061    N        0.19417    0.06371    0.28906    1.000
    N1062    N        0.18558    0.12104    0.26513    1.000
    Si1063   Si       0.21038    0.04716    0.36193    1.000
    N1064    N        0.17429    0.07278    0.35603    1.000
    Si1065   Si       0.18706    0.08024    0.24902    1.000
    N1066    N        0.19309    0.00687    0.36256    1.000
    N1067    N        0.21831    0.24509    0.25988    1.000
    N1068    N        0.18746    0.21273    0.33578    1.000
    Si1069   Si       0.19094    0.17057    0.32768    1.000
    N1070    N        0.19824    0.15207    0.36603    1.000
    N1071    N        0.17099    0.20687    0.46753    1.000
    Si1072   Si       0.17666    0.15554    0.40478    1.000
    Si1073   Si       0.17276    0.03000    0.45296    1.000
    N1074    N        0.19529    0.06554    0.46745    1.000
    Si1075   Si       0.17789    0.10509    0.46593    1.000
    Si1076   Si       0.17432    0.07890    0.39874    1.000
    N1077    N        0.21821    0.06653    0.39867    1.000
    N1078    N        0.17455    0.11561    0.42148    1.000
    Si1079   Si       0.20699    0.17949    0.46692    1.000
    N1080    N        0.21316    0.17049    0.42634    1.000
    N1081    N        0.19058    0.14265    0.48410    1.000
    N1082    N        0.19166    0.25083    0.41838    1.000
    Si1083   Si       0.20760    0.04372    0.59014    1.000
    N1084    N        0.17594    0.10851    0.53785    1.000
    N1085    N        0.21210    0.08765    0.59255    1.000
    Si1086   Si       0.21374    0.08900    0.54552    1.000
    Si1087   Si       0.17921    0.10897    0.61150    1.000
    N1088    N        0.21786    0.04449    0.54765    1.000
    N1089    N        0.19600    0.24212    0.52172    1.000
    N1090    N        0.18416    0.15249    0.60006    1.000
    Si1091   Si       0.18065    0.15126    0.52661    1.000
    N1092    N        0.21740    0.16408    0.54317    1.000
    Si1093   Si       0.20053    0.21425    0.64357    1.000
    Si1094   Si       0.17528    0.12877    0.74369    1.000
    Si1095   Si       0.19271    0.08226    0.69225    1.000
    N1096    N        0.20470    0.11952    0.71291    1.000
    N1097    N        0.18193    0.10491    0.65508    1.000
    Si1098   Si       0.21088    0.01483    0.71395    1.000
    N1099    N        0.16291    0.05571    0.71098    1.000
    Si1100   Si       0.17722    0.14986    0.67533    1.000
    N1101    N        0.21021    0.17234    0.65921    1.000
    N1102    N        0.21148    0.23941    0.67765    1.000
    N1103    N        0.16693    0.03681    0.60364    1.000
    N1104    N        0.21951    0.03267    0.80900    1.000
    N1105    N        0.18526    0.01580    0.86823    1.000
    Si1106   Si       0.22410    0.03249    0.85311    1.000
    N1107    N        0.16458    0.08162    0.86704    1.000
    N1108    N        0.21016    0.13499    0.84470    1.000
    N1109    N        0.17488    0.19460    0.82499    1.000
    Si1110   Si       0.18146    0.15056    0.81773    1.000
    N1111    N        0.19517    0.14917    0.77533    1.000
    Si1112   Si       0.21578    0.18485    0.76433    1.000
    Si1113   Si       0.21579    0.20165    0.83829    1.000
    N1114    N        0.18364    0.21216    0.75416    1.000
    Si1115   Si       0.17623    0.25341    0.75750    1.000
    Si1116   Si       0.20271    0.14817    0.88651    1.000
    N1117    N        0.22188    0.07605    0.98607    1.000
    Si1118   Si       0.18607    0.10197    0.97623    1.000
    N1119    N        0.22298    0.20694    0.95725    1.000
    N1120    N        0.21782    0.18943    0.88277    1.000
    N1121    N        0.20068    0.14301    0.97094    1.000
    Si1122   Si       0.18603    0.18558    0.97367    1.000
    Si1123   Si       0.22542    0.03608    0.96970    1.000
    N1124    N        0.19072    0.00970    0.96561    1.000
    N1125    N        0.19240    0.33645    0.06172    1.000
    Si1126   Si       0.19726    0.31375    0.09856    1.000
    N1127    N        0.21935    0.27663    0.09753    1.000
    Si1128   Si       0.18119    0.38127    0.09876    1.000
    N1129    N        0.18481    0.40480    0.06320    1.000
    Si1130   Si       0.20389    0.48381    0.06871    1.000
    N1131    N        0.21814    0.47733    0.11178    1.000
    N1132    N        0.17705    0.44030    0.00051    1.000
    Si1133   Si       0.21806    0.46178    0.99881    1.000
    N1134    N        0.21123    0.50320    0.99820    1.000
    N1135    N        0.17737    0.41361    0.12772    1.000
    N1136    N        0.20284    0.34991    0.12299    1.000
    Si1137   Si       0.21608    0.33716    0.16182    1.000
    N1138    N        0.18444    0.31136    0.17965    1.000
    Si1139   Si       0.20560    0.34668    0.22944    1.000
    Si1140   Si       0.21793    0.28680    0.19580    1.000
    N1141    N        0.22216    0.36627    0.19357    1.000
    N1142    N        0.22117    0.30519    0.23516    1.000
    N1143    N        0.18608    0.44143    0.23937    1.000
    Si1144   Si       0.21585    0.43685    0.12767    1.000
    Si1145   Si       0.22826    0.45723    0.24432    1.000
    N1146    N        0.19965    0.35884    0.33509    1.000
    Si1147   Si       0.18799    0.28044    0.26202    1.000
    Si1148   Si       0.20949    0.34067    0.29795    1.000
    N1149    N        0.17584    0.31961    0.27876    1.000
    N1150    N        0.21982    0.36714    0.26609    1.000
    N1151    N        0.22367    0.26817    0.35637    1.000
    Si1152   Si       0.19525    0.49271    0.31110    1.000
    Si1153   Si       0.19071    0.40034    0.33586    1.000
    N1154    N        0.17863    0.41011    0.29609    1.000
    Si1155   Si       0.19074    0.40023    0.25668    1.000
    Si1156   Si       0.21444    0.34288    0.37330    1.000
    Si1157   Si       0.18700    0.27509    0.38233    1.000
    N1158    N        0.18268    0.31603    0.38548    1.000
    Si1159   Si       0.19953    0.35451    0.44180    1.000
    N1160    N        0.21611    0.37343    0.40387    1.000
    N1161    N        0.19446    0.37882    0.47938    1.000
    N1162    N        0.19602    0.46910    0.40690    1.000
    N1163    N        0.21371    0.50169    0.45853    1.000
    Si1164   Si       0.16748    0.42245    0.47672    1.000
    N1165    N        0.21039    0.43871    0.47038    1.000
    Si1166   Si       0.19478    0.28034    0.54258    1.000
    N1167    N        0.20456    0.31525    0.51720    1.000
    Si1168   Si       0.18118    0.35285    0.51279    1.000
    N1169    N        0.18220    0.37903    0.54904    1.000
    N1170    N        0.18800    0.31943    0.61774    1.000
    N1171    N        0.17900    0.46993    0.61456    1.000
    Si1172   Si       0.20307    0.47671    0.49937    1.000
    Si1173   Si       0.21604    0.44870    0.62151    1.000
    Si1174   Si       0.22316    0.39247    0.55765    1.000
    N1175    N        0.16607    0.45515    0.50851    1.000
    Si1176   Si       0.20350    0.27829    0.69638    1.000
    Si1177   Si       0.18407    0.33993    0.65629    1.000
    N1178    N        0.17377    0.31084    0.68618    1.000
    N1179    N        0.22183    0.35842    0.66254    1.000
    N1180    N        0.21000    0.28070    0.74268    1.000
    Si1181   Si       0.20721    0.39167    0.74215    1.000
    N1182    N        0.17132    0.40233    0.71773    1.000
    N1183    N        0.18421    0.48442    0.68172    1.000
    N1184    N        0.20068    0.42110    0.65354    1.000
    Si1185   Si       0.22665    0.49113    0.67799    1.000
    N1186    N        0.19186    0.51143    0.74587    1.000
    N1187    N        0.19908    0.35574    0.76724    1.000
    Si1188   Si       0.20970    0.28496    0.84745    1.000
    Si1189   Si       0.17583    0.37305    0.80012    1.000
    N1190    N        0.17292    0.29403    0.86596    1.000
    N1191    N        0.21164    0.30241    0.80729    1.000
    Si1192   Si       0.22052    0.31627    0.76923    1.000
    N1193    N        0.20257    0.39273    0.82723    1.000
    Si1194   Si       0.18906    0.48328    0.83008    1.000
    Si1195   Si       0.18467    0.40400    0.86726    1.000
    N1196    N        0.22074    0.42418    0.76559    1.000
    N1197    N        0.17462    0.49234    0.86937    1.000
    N1198    N        0.19932    0.29364    0.93662    1.000
    N1199    N        0.17696    0.36552    0.88740    1.000
    Si1200   Si       0.17245    0.35290    0.98114    1.000
    Si1201   Si       0.20550    0.37658    0.91780    1.000
    N1202    N        0.20770    0.33086    0.99278    1.000
    N1203    N        0.18222    0.38339    0.95309    1.000
    Si1204   Si       0.18099    0.42669    0.95794    1.000
    N1205    N        0.21199    0.41512    0.89864    1.000
    Si1206   Si       0.22337    0.29415    0.97454    1.000
    N1207    N        0.21955    0.44642    0.95591    1.000
    Si1208   Si       0.21031    0.55430    0.09890    1.000
    N1209    N        0.20982    0.52697    0.06399    1.000
    N1210    N        0.21384    0.59684    0.08669    1.000
    Si1211   Si       0.21009    0.54004    0.02191    1.000
    N1212    N        0.18055    0.57173    0.00819    1.000
    Si1213   Si       0.17473    0.61239    0.07600    1.000
    Si1214   Si       0.18636    0.72121    0.01987    1.000
    Si1215   Si       0.21468    0.64985    0.02908    1.000
    N1216    N        0.21313    0.68982    0.00554    1.000
    N1217    N        0.17288    0.64194    0.04445    1.000
    Si1218   Si       0.18315    0.72840    0.23833    1.000
    Si1219   Si       0.17019    0.70913    0.16170    1.000
    N1220    N        0.17328    0.55053    0.12150    1.000
    Si1221   Si       0.17268    0.56371    0.16274    1.000
    N1222    N        0.19290    0.60137    0.17027    1.000
    N1223    N        0.18934    0.54018    0.19779    1.000
    N1224    N        0.21384    0.71158    0.15933    1.000
    N1225    N        0.21802    0.65282    0.12679    1.000
    Si1226   Si       0.18198    0.63795    0.14616    1.000
    N1227    N        0.20441    0.75559    0.09732    1.000
    N1228    N        0.19643    0.59722    0.29129    1.000
    N1229    N        0.18384    0.53220    0.30833    1.000
    Si1230   Si       0.18780    0.62038    0.32789    1.000
    Si1231   Si       0.21473    0.56005    0.29779    1.000
    Si1232   Si       0.19766    0.61942    0.25380    1.000
    N1233    N        0.16463    0.59556    0.35416    1.000
    N1234    N        0.21523    0.65772    0.26720    1.000
    Si1235   Si       0.21003    0.72716    0.34720    1.000
    Si1236   Si       0.17278    0.66810    0.27670    1.000
    N1237    N        0.19304    0.56982    0.47500    1.000
    N1238    N        0.17694    0.60487    0.42283    1.000
    Si1239   Si       0.21928    0.53782    0.48487    1.000
    Si1240   Si       0.19996    0.51140    0.41593    1.000
    N1241    N        0.16445    0.53409    0.41647    1.000
    Si1242   Si       0.16554    0.56912    0.44191    1.000
    N1243    N        0.19539    0.73989    0.45790    1.000
    N1244    N        0.20098    0.69430    0.37422    1.000
    Si1245   Si       0.20444    0.63397    0.44081    1.000
    Si1246   Si       0.19482    0.70171    0.47720    1.000
    Si1247   Si       0.16717    0.68542    0.40417    1.000
    N1248    N        0.18723    0.67494    0.44181    1.000
    N1249    N        0.16311    0.65304    0.31629    1.000
    N1250    N        0.17761    0.55672    0.58625    1.000
    N1251    N        0.19326    0.51766    0.51596    1.000
    Si1252   Si       0.19842    0.60010    0.50479    1.000
    Si1253   Si       0.21605    0.57302    0.58750    1.000
    Si1254   Si       0.17139    0.53972    0.54367    1.000
    N1255    N        0.21195    0.59281    0.54497    1.000
    N1256    N        0.21576    0.61610    0.60357    1.000
    Si1257   Si       0.21971    0.63248    0.56288    1.000
    N1258    N        0.18453    0.65742    0.55870    1.000
    N1259    N        0.21284    0.75223    0.59398    1.000
    N1260    N        0.20527    0.59822    0.67079    1.000
    Si1261   Si       0.19865    0.59348    0.73737    1.000
    Si1262   Si       0.21494    0.63305    0.64435    1.000
    Si1263   Si       0.16630    0.65616    0.59808    1.000
    N1264    N        0.19372    0.63600    0.73466    1.000
    Si1265   Si       0.21672    0.73773    0.63586    1.000
    N1266    N        0.18190    0.65963    0.63917    1.000
    Si1267   Si       0.21986    0.72783    0.73549    1.000
    N1268    N        0.17869    0.72362    0.65684    1.000
    N1269    N        0.19488    0.76061    0.71984    1.000
    N1270    N        0.19256    0.57930    0.77825    1.000
    N1271    N        0.18372    0.60896    0.84272    1.000
    Si1272   Si       0.21164    0.59569    0.81161    1.000
    Si1273   Si       0.18165    0.53736    0.78021    1.000
    N1274    N        0.20260    0.52263    0.81455    1.000
    N1275    N        0.22077    0.64190    0.80858    1.000
    Si1276   Si       0.19891    0.65036    0.84383    1.000
    N1277    N        0.20272    0.70140    0.76652    1.000
    N1278    N        0.17161    0.68422    0.83540    1.000
    Si1279   Si       0.16872    0.69528    0.79168    1.000
    Si1280   Si       0.17629    0.53391    0.87797    1.000
    N1281    N        0.20145    0.59812    0.94093    1.000
    Si1282   Si       0.19325    0.60357    0.98291    1.000
    Si1283   Si       0.20532    0.55628    0.92871    1.000
    N1284    N        0.21782    0.54901    0.88609    1.000
    Si1285   Si       0.17541    0.63018    0.92524    1.000
    N1286    N        0.16789    0.53272    0.92305    1.000
    N1287    N        0.22088    0.72769    0.90361    1.000
    N1288    N        0.17507    0.66953    0.90635    1.000
    Si1289   Si       0.21809    0.68272    0.90616    1.000
    Si1290   Si       0.19506    0.75271    0.88106    1.000
    N1291    N        0.16490    0.63638    0.97110    1.000
    Si1292   Si       0.22315    0.66741    0.74573    1.000
    N1293    N        0.21032    0.81475    0.06339    1.000
    Si1294   Si       0.21271    0.85868    0.06088    1.000
    N1295    N        0.18441    0.86886    0.09201    1.000
    Si1296   Si       0.17905    0.78995    0.04290    1.000
    N1297    N        0.20532    0.76016    0.02675    1.000
    N1298    N        0.21580    0.88060    0.02324    1.000
    Si1299   Si       0.22176    0.79437    0.10395    1.000
    Si1300   Si       0.16692    0.97823    0.11564    1.000
    N1301    N        0.19863    0.98124    0.02883    1.000
    N1302    N        0.18456    0.94046    0.10801    1.000
    Si1303   Si       0.21802    0.81324    0.18122    1.000
    N1304    N        0.20655    0.81689    0.13893    1.000
    N1305    N        0.20255    0.83220    0.21632    1.000
    Si1306   Si       0.18978    0.85638    0.13493    1.000
    N1307    N        0.20455    0.77282    0.18919    1.000
    Si1308   Si       0.22659    0.86164    0.23599    1.000
    N1309    N        0.22057    0.88239    0.15128    1.000
    N1310    N        0.17615    0.90702    0.19921    1.000
    Si1311   Si       0.17657    0.91491    0.24098    1.000
    N1312    N        0.19757    0.95293    0.24571    1.000
    N1313    N        0.17403    0.99317    0.18779    1.000
    Si1314   Si       0.21868    0.90823    0.18567    1.000
    Si1315   Si       0.20740    0.97253    0.20864    1.000
    N1316    N        0.16704    0.93724    0.99696    1.000
    N1317    N        0.19076    0.82504    0.35847    1.000
    Si1318   Si       0.21444    0.78727    0.34861    1.000
    N1319    N        0.19526    0.76467    0.26209    1.000
    N1320    N        0.18473    0.76121    0.33402    1.000
    Si1321   Si       0.18304    0.80662    0.24853    1.000
    Si1322   Si       0.22280    0.85525    0.35920    1.000
    N1323    N        0.19750    0.88284    0.25945    1.000
    Si1324   Si       0.19789    0.88585    0.30274    1.000
    N1325    N        0.21752    0.92531    0.30494    1.000
    Si1326   Si       0.20029    0.96179    0.28952    1.000
    N1327    N        0.17373    0.77565    0.40261    1.000
    N1328    N        0.20812    0.83379    0.42591    1.000
    Si1329   Si       0.20025    0.83680    0.46898    1.000
    Si1330   Si       0.17611    0.81865    0.40027    1.000
    N1331    N        0.22157    0.79782    0.47974    1.000
    N1332    N        0.22153    0.88776    0.38515    1.000
    N1333    N        0.21599    0.95151    0.38546    1.000
    N1334    N        0.18017    0.89134    0.44818    1.000
    Si1335   Si       0.20826    0.90322    0.47775    1.000
    N1336    N        0.18797    0.99109    0.43690    1.000
    Si1337   Si       0.17749    0.97299    0.39748    1.000
    Si1338   Si       0.19919    0.91488    0.41455    1.000
    Si1339   Si       0.17979    0.77738    0.57981    1.000
    Si1340   Si       0.20749    0.84019    0.57240    1.000
    N1341    N        0.17979    0.85785    0.54544    1.000
    N1342    N        0.19130    0.81339    0.60510    1.000
    N1343    N        0.21346    0.87397    0.60059    1.000
    N1344    N        0.19820    0.92034    0.51491    1.000
    Si1345   Si       0.19800    0.96476    0.52911    1.000
    Si1346   Si       0.21644    0.97538    0.60914    1.000
    N1347    N        0.21893    0.98989    0.49873    1.000
    N1348    N        0.22214    0.96640    0.56719    1.000
    Si1349   Si       0.16690    0.90041    0.53690    1.000
    Si1350   Si       0.18182    0.86611    0.62979    1.000
    N1351    N        0.21212    0.85291    0.65907    1.000
    Si1352   Si       0.20657    0.86287    0.70078    1.000
    N1353    N        0.21494    0.82841    0.72705    1.000
    N1354    N        0.21532    0.77432    0.65723    1.000
    Si1355   Si       0.17817    0.76079    0.68007    1.000
    Si1356   Si       0.19146    0.95611    0.74300    1.000
    Si1357   Si       0.21126    0.96563    0.67589    1.000
    Si1358   Si       0.19291    0.79596    0.74542    1.000
    N1359    N        0.18196    0.99948    0.68574    1.000
    N1360    N        0.17493    0.96931    0.61991    1.000
    N1361    N        0.19426    0.93614    0.70325    1.000
    N1362    N        0.17223    0.90602    0.64688    1.000
    N1363    N        0.16606    0.79274    0.54160    1.000
    Si1364   Si       0.19143    0.78756    0.81667    1.000
    N1365    N        0.18817    0.82841    0.83072    1.000
    N1366    N        0.21587    0.78395    0.78024    1.000
    N1367    N        0.21633    0.76314    0.84490    1.000
    Si1368   Si       0.20650    0.83063    0.86959    1.000
    Si1369   Si       0.16657    0.86582    0.83848    1.000
    N1370    N        0.17974    0.97228    0.81863    1.000
    Si1371   Si       0.20254    0.93245    0.80783    1.000
    N1372    N        0.17703    0.89691    0.80700    1.000
    N1373    N        0.21974    0.93624    0.76855    1.000
    N1374    N        0.19622    0.99804    0.75188    1.000
    Si1375   Si       0.20519    0.97569    0.86263    1.000
    Si1376   Si       0.18583    0.00792    0.79289    1.000
    Si1377   Si       0.16698    0.76902    0.97443    1.000
    N1378    N        0.18856    0.79560    0.89374    1.000
    N1379    N        0.18558    0.86626    0.88045    1.000
    N1380    N        0.20996    0.76879    0.96303    1.000
    Si1381   Si       0.16816    0.87655    0.91796    1.000
    Si1382   Si       0.18903    0.89894    0.99240    1.000
    Si1383   Si       0.19239    0.97197    0.98659    1.000
    N1384    N        0.19439    0.89793    0.94451    1.000
    N1385    N        0.19487    0.95443    0.90070    1.000
    Si1386   Si       0.21964    0.93268    0.92926    1.000
    Si1387   Si       0.25306    0.09899    0.09143    1.000
    N1388    N        0.24434    0.06056    0.10571    1.000
    Si1389   Si       0.26577    0.02286    0.09884    1.000
    N1390    N        0.23712    0.09737    0.05035    1.000
    Si1391   Si       0.25310    0.09455    0.01015    1.000
    N1392    N        0.25249    0.01422    0.99686    1.000
    N1393    N        0.23212    0.13255    0.10932    1.000
    Si1394   Si       0.25348    0.20300    0.05596    1.000
    N1395    N        0.25869    0.19193    0.01546    1.000
    N1396    N        0.26903    0.24228    0.06108    1.000
    N1397    N        0.27989    0.18045    0.07993    1.000
    Si1398   Si       0.25163    0.04461    0.22780    1.000
    N1399    N        0.25704    0.10952    0.16838    1.000
    N1400    N        0.22647    0.01183    0.21558    1.000
    Si1401   Si       0.25410    0.14659    0.14529    1.000
    N1402    N        0.24094    0.15590    0.23166    1.000
    N1403    N        0.26459    0.23445    0.13626    1.000
    N1404    N        0.27720    0.21574    0.19933    1.000
    N1405    N        0.22890    0.17614    0.16807    1.000
    Si1406   Si       0.27564    0.18245    0.22611    1.000
    Si1407   Si       0.24449    0.21714    0.16920    1.000
    N1408    N        0.22402    0.08012    0.22703    1.000
    N1409    N        0.25449    0.10770    0.28342    1.000
    N1410    N        0.26000    0.03836    0.27074    1.000
    N1411    N        0.24255    0.05806    0.33370    1.000
    Si1412   Si       0.23726    0.06850    0.29381    1.000
    N1413    N        0.25995    0.23186    0.31520    1.000
    Si1414   Si       0.26593    0.18703    0.30423    1.000
    Si1415   Si       0.25784    0.23984    0.27074    1.000
    Si1416   Si       0.22768    0.22791    0.34455    1.000
    N1417    N        0.28064    0.20325    0.26456    1.000
    Si1418   Si       0.23994    0.05692    0.46636    1.000
    Si1419   Si       0.25579    0.08820    0.40306    1.000
    N1420    N        0.26089    0.08930    0.44669    1.000
    N1421    N        0.24359    0.02053    0.44099    1.000
    Si1422   Si       0.26945    0.02366    0.40810    1.000
    N1423    N        0.26095    0.12950    0.39345    1.000
    Si1424   Si       0.23512    0.16399    0.38989    1.000
    Si1425   Si       0.28122    0.21484    0.39415    1.000
    N1426    N        0.23931    0.20455    0.47866    1.000
    Si1427   Si       0.27547    0.18732    0.46438    1.000
    N1428    N        0.26827    0.15142    0.48443    1.000
    N1429    N        0.24546    0.20162    0.37149    1.000
    N1430    N        0.22691    0.16860    0.30188    1.000
    Si1431   Si       0.22677    0.13653    0.26896    1.000
    N1432    N        0.24785    0.10708    0.52817    1.000
    Si1433   Si       0.25187    0.10218    0.60317    1.000
    Si1434   Si       0.24217    0.01908    0.52050    1.000
    N1435    N        0.26342    0.04892    0.50177    1.000
    N1436    N        0.23170    0.01753    0.61450    1.000
    Si1437   Si       0.24494    0.24765    0.58561    1.000
    Si1438   Si       0.25450    0.14941    0.52366    1.000
    N1439    N        0.25987    0.22679    0.54757    1.000
    N1440    N        0.25232    0.14666    0.60813    1.000
    Si1441   Si       0.23696    0.23276    0.51030    1.000
    N1442    N        0.28102    0.25807    0.60798    1.000
    N1443    N        0.22482    0.21340    0.60429    1.000
    N1444    N        0.26456    0.07778    0.63845    1.000
    Si1445   Si       0.26793    0.03340    0.63443    1.000
    Si1446   Si       0.26959    0.05202    0.70881    1.000
    N1447    N        0.22832    0.05456    0.69940    1.000
    N1448    N        0.26859    0.12550    0.74452    1.000
    N1449    N        0.26649    0.13503    0.67696    1.000
    Si1450   Si       0.24260    0.14028    0.71344    1.000
    Si1451   Si       0.25305    0.16457    0.64828    1.000
    N1452    N        0.23530    0.18278    0.72472    1.000
    N1453    N        0.27168    0.24671    0.71669    1.000
    Si1454   Si       0.24593    0.21631    0.69831    1.000
    N1455    N        0.27118    0.20290    0.66323    1.000
    Si1456   Si       0.22114    0.17233    0.58736    1.000
    Si1457   Si       0.24680    0.10772    0.84231    1.000
    N1458    N        0.25835    0.09057    0.80443    1.000
    Si1459   Si       0.26034    0.04844    0.79508    1.000
    N1460    N        0.26685    0.04241    0.75178    1.000
    N1461    N        0.23864    0.07095    0.86620    1.000
    N1462    N        0.28192    0.13000    0.86233    1.000
    Si1463   Si       0.28145    0.11723    0.78278    1.000
    N1464    N        0.23917    0.19734    0.80105    1.000
    Si1465   Si       0.26487    0.23970    0.86488    1.000
    N1466    N        0.22493    0.24399    0.84778    1.000
    Si1467   Si       0.28231    0.19509    0.80900    1.000
    N1468    N        0.28064    0.20121    0.85174    1.000
    N1469    N        0.26158    0.24023    0.90796    1.000
    Si1470   Si       0.23949    0.08274    0.90742    1.000
    N1471    N        0.24162    0.04425    0.93100    1.000
    N1472    N        0.26416    0.12785    0.98370    1.000
    N1473    N        0.26681    0.16988    0.92814    1.000
    Si1474   Si       0.24668    0.22502    0.98970    1.000
    Si1475   Si       0.24041    0.14082    0.95140    1.000
    Si1476   Si       0.23877    0.20382    0.91656    1.000
    N1477    N        0.22238    0.12109    0.91399    1.000
    N1478    N        0.25315    0.30990    0.04533    1.000
    Si1479   Si       0.25674    0.28020    0.07494    1.000
    N1480    N        0.24348    0.38085    0.03668    1.000
    N1481    N        0.28458    0.29710    0.10572    1.000
    Si1482   Si       0.22477    0.34057    0.03184    1.000
    Si1483   Si       0.25375    0.50331    0.11437    1.000
    Si1484   Si       0.27210    0.46377    0.04373    1.000
    N1485    N        0.24141    0.41342    0.09986    1.000
    N1486    N        0.27112    0.49478    0.07491    1.000
    N1487    N        0.26912    0.47340    0.99776    1.000
    Si1488   Si       0.22674    0.41181    0.05903    1.000
    N1489    N        0.22765    0.45381    0.04320    1.000
    N1490    N        0.23519    0.48831    0.21439    1.000
    Si1491   Si       0.27415    0.27759    0.14394    1.000
    N1492    N        0.24470    0.30522    0.16653    1.000
    Si1493   Si       0.25467    0.46952    0.18257    1.000
    Si1494   Si       0.24892    0.40076    0.19565    1.000
    N1495    N        0.24526    0.41735    0.23837    1.000
    N1496    N        0.27542    0.49719    0.15112    1.000
    N1497    N        0.23365    0.43244    0.16672    1.000
    Si1498   Si       0.25410    0.29336    0.33871    1.000
    N1499    N        0.25375    0.33093    0.36192    1.000
    Si1500   Si       0.25645    0.30758    0.26110    1.000
    N1501    N        0.23994    0.31004    0.30070    1.000
    N1502    N        0.27949    0.27255    0.25561    1.000
    Si1503   Si       0.28446    0.35682    0.34291    1.000
    Si1504   Si       0.26412    0.38394    0.26513    1.000
    N1505    N        0.27225    0.38290    0.30916    1.000
    Si1506   Si       0.26157    0.48296    0.31689    1.000
    Si1507   Si       0.26758    0.41516    0.33818    1.000
    N1508    N        0.23023    0.47671    0.28495    1.000
    N1509    N        0.22599    0.42281    0.34724    1.000
    N1510    N        0.22804    0.49020    0.34555    1.000
    N1511    N        0.22261    0.32175    0.45556    1.000
    Si1512   Si       0.23918    0.30644    0.49272    1.000
    N1513    N        0.25545    0.26764    0.49123    1.000
    Si1514   Si       0.23092    0.40357    0.48346    1.000
    Si1515   Si       0.22347    0.45742    0.37406    1.000
    N1516    N        0.25259    0.44294    0.40507    1.000
    Si1517   Si       0.23072    0.46242    0.43927    1.000
    Si1518   Si       0.27075    0.49693    0.49283    1.000
    Si1519   Si       0.25265    0.39831    0.40789    1.000
    N1520    N        0.25842    0.39347    0.45041    1.000
    N1521    N        0.27237    0.47444    0.45645    1.000
    N1522    N        0.28251    0.39066    0.37197    1.000
    N1523    N        0.27448    0.34448    0.24687    1.000
    N1524    N        0.24021    0.35501    0.57283    1.000
    N1525    N        0.27236    0.32815    0.50905    1.000
    Si1526   Si       0.27571    0.34290    0.54856    1.000
    Si1527   Si       0.22592    0.31952    0.59751    1.000
    N1528    N        0.22390    0.28363    0.57476    1.000
    N1529    N        0.24791    0.39973    0.52170    1.000
    N1530    N        0.24323    0.47360    0.51712    1.000
    Si1531   Si       0.25383    0.46223    0.55762    1.000
    N1532    N        0.26692    0.50400    0.57305    1.000
    N1533    N        0.23076    0.43204    0.58275    1.000
    N1534    N        0.26090    0.31866    0.62409    1.000
    N1535    N        0.24211    0.30080    0.69106    1.000
    Si1536   Si       0.25606    0.33251    0.66522    1.000
    Si1537   Si       0.25492    0.28305    0.72936    1.000
    N1538    N        0.27041    0.40598    0.64770    1.000
    Si1539   Si       0.24909    0.43700    0.73431    1.000
    N1540    N        0.24438    0.48154    0.63908    1.000
    N1541    N        0.24230    0.47505    0.71580    1.000
    Si1542   Si       0.23447    0.39825    0.66887    1.000
    N1543    N        0.23937    0.39921    0.71218    1.000
    Si1544   Si       0.23276    0.51516    0.73259    1.000
    N1545    N        0.26456    0.31117    0.75856    1.000
    Si1546   Si       0.27943    0.31035    0.85330    1.000
    Si1547   Si       0.26292    0.47313    0.85253    1.000
    N1548    N        0.27281    0.40984    0.81018    1.000
    Si1549   Si       0.22939    0.42191    0.80928    1.000
    N1550    N        0.22629    0.46042    0.83016    1.000
    N1551    N        0.24165    0.30360    0.87354    1.000
    N1552    N        0.25910    0.29608    0.94947    1.000
    N1553    N        0.24087    0.35411    0.91812    1.000
    Si1554   Si       0.23467    0.30935    0.91514    1.000
    Si1555   Si       0.23898    0.44471    0.91798    1.000
    N1556    N        0.27986    0.43294    0.93015    1.000
    N1557    N        0.24599    0.48094    0.89364    1.000
    Si1558   Si       0.28237    0.35999    0.90537    1.000
    N1559    N        0.27202    0.51202    0.83468    1.000
    N1560    N        0.25009    0.54902    0.00960    1.000
    N1561    N        0.24943    0.54697    0.11595    1.000
    Si1562   Si       0.26649    0.58864    0.00325    1.000
    Si1563   Si       0.24055    0.63038    0.09671    1.000
    N1564    N        0.23014    0.62078    0.00113    1.000
    N1565    N        0.28041    0.61878    0.10930    1.000
    N1566    N        0.27528    0.68092    0.15265    1.000
    N1567    N        0.26174    0.71199    0.09935    1.000
    Si1568   Si       0.26704    0.68905    0.06393    1.000
    N1569    N        0.23991    0.65486    0.06184    1.000
    N1570    N        0.26656    0.71654    0.02998    1.000
    N1571    N        0.23155    0.60699    0.22973    1.000
    Si1572   Si       0.23169    0.59436    0.18776    1.000
    N1573    N        0.25049    0.55512    0.19128    1.000
    N1574    N        0.26520    0.61754    0.17433    1.000
    Si1575   Si       0.22543    0.53195    0.21998    1.000
    N1576    N        0.27872    0.66351    0.22741    1.000
    Si1577   Si       0.23951    0.69116    0.13093    1.000
    N1578    N        0.27330    0.74580    0.18054    1.000
    Si1579   Si       0.23058    0.73827    0.19171    1.000
    Si1580   Si       0.28582    0.53638    0.17473    1.000
    N1581    N        0.22317    0.71292    0.22874    1.000
    N1582    N        0.27907    0.66394    0.99202    1.000
    Si1583   Si       0.25533    0.60150    0.33930    1.000
    Si1584   Si       0.24735    0.52790    0.35851    1.000
    Si1585   Si       0.26103    0.58691    0.25820    1.000
    N1586    N        0.23544    0.56166    0.33602    1.000
    N1587    N        0.23523    0.55012    0.26000    1.000
    N1588    N        0.27357    0.60336    0.29822    1.000
    N1589    N        0.22522    0.62875    0.34855    1.000
    Si1590   Si       0.26801    0.70353    0.32016    1.000
    N1591    N        0.26657    0.68124    0.36014    1.000
    N1592    N        0.23056    0.72293    0.30838    1.000
    N1593    N        0.28067    0.68731    0.28275    1.000
    Si1594   Si       0.24691    0.68220    0.25360    1.000
    N1595    N        0.23468    0.52740    0.39996    1.000
    N1596    N        0.26097    0.54293    0.48520    1.000
    Si1597   Si       0.27904    0.63247    0.43524    1.000
    N1598    N        0.22432    0.62458    0.47980    1.000
    N1599    N        0.23274    0.69016    0.49717    1.000
    N1600    N        0.26565    0.73901    0.46877    1.000
    N1601    N        0.24057    0.64346    0.41639    1.000
    Si1602   Si       0.23224    0.66102    0.37790    1.000
    N1603    N        0.23792    0.75319    0.36529    1.000
    N1604    N        0.24451    0.55396    0.61420    1.000
    Si1605   Si       0.26235    0.51405    0.61661    1.000
    Si1606   Si       0.26239    0.72013    0.50851    1.000
    N1607    N        0.25555    0.64588    0.54372    1.000
    Si1608   Si       0.25095    0.65137    0.49898    1.000
    N1609    N        0.27969    0.75292    0.59456    1.000
    N1610    N        0.22748    0.69342    0.71066    1.000
    Si1611   Si       0.23704    0.57244    0.68415    1.000
    N1612    N        0.27561    0.58097    0.66892    1.000
    N1613    N        0.24143    0.58492    0.72627    1.000
    N1614    N        0.22947    0.53192    0.69121    1.000
    Si1615   Si       0.25599    0.68596    0.67946    1.000
    N1616    N        0.25121    0.71431    0.64735    1.000
    N1617    N        0.25332    0.64965    0.65491    1.000
    N1618    N        0.25930    0.74574    0.74242    1.000
    N1619    N        0.25035    0.75565    0.53007    1.000
    N1620    N        0.24813    0.57491    0.81938    1.000
    Si1621   Si       0.24491    0.53171    0.80861    1.000
    N1622    N        0.25542    0.53063    0.76633    1.000
    Si1623   Si       0.27434    0.56634    0.74936    1.000
    Si1624   Si       0.25317    0.63836    0.96720    1.000
    N1625    N        0.25992    0.70252    0.81778    1.000
    Si1626   Si       0.25806    0.66168    0.80404    1.000
    N1627    N        0.26358    0.66010    0.76005    1.000
    Si1628   Si       0.27317    0.64953    0.87159    1.000
    Si1629   Si       0.25297    0.69994    0.99143    1.000
    Si1630   Si       0.25119    0.51439    0.97868    1.000
    N1631    N        0.23571    0.53024    0.94323    1.000
    Si1632   Si       0.24990    0.52434    0.90286    1.000
    N1633    N        0.27389    0.60081    0.96055    1.000
    N1634    N        0.23048    0.65826    0.87228    1.000
    N1635    N        0.26712    0.72926    0.96201    1.000
    N1636    N        0.23653    0.66498    0.93927    1.000
    Si1637   Si       0.23943    0.75034    0.93536    1.000
    N1638    N        0.27209    0.78177    0.01037    1.000
    N1639    N        0.24887    0.86633    0.08515    1.000
    Si1640   Si       0.25067    0.86468    0.99840    1.000
    N1641    N        0.26141    0.78208    0.11871    1.000
    N1642    N        0.22854    0.95076    0.17742    1.000
    N1643    N        0.27949    0.84949    0.02735    1.000
    Si1644   Si       0.24320    0.98347    0.02738    1.000
    N1645    N        0.26749    0.94641    0.02709    1.000
    N1646    N        0.25922    0.92674    0.11531    1.000
    N1647    N        0.24233    0.00189    0.06944    1.000
    Si1648   Si       0.25370    0.88443    0.12406    1.000
    Si1649   Si       0.28576    0.82964    0.22324    1.000
    N1650    N        0.26084    0.81609    0.18765    1.000
    Si1651   Si       0.27900    0.78610    0.16064    1.000
    N1652    N        0.24657    0.89176    0.21391    1.000
    N1653    N        0.27222    0.99861    0.13450    1.000
    Si1654   Si       0.25953    0.95780    0.14682    1.000
    Si1655   Si       0.23025    0.78476    0.99855    1.000
    Si1656   Si       0.25573    0.83368    0.29796    1.000
    N1657    N        0.25721    0.83627    0.25591    1.000
    N1658    N        0.23664    0.79624    0.31136    1.000
    N1659    N        0.22977    0.86203    0.31753    1.000
    N1660    N        0.26861    0.76058    0.26015    1.000
    Si1661   Si       0.23303    0.76121    0.28512    1.000
    N1662    N        0.28358    0.89853    0.27990    1.000
    N1663    N        0.22962    0.98644    0.30979    1.000
    Si1664   Si       0.26583    0.00275    0.29147    1.000
    N1665    N        0.26891    0.94161    0.34378    1.000
    Si1666   Si       0.26077    0.92814    0.30275    1.000
    Si1667   Si       0.22604    0.98030    0.35216    1.000
    N1668    N        0.28051    0.96313    0.28363    1.000
    N1669    N        0.28188    0.84186    0.43933    1.000
    N1670    N        0.25500    0.83051    0.37424    1.000
    N1671    N        0.25275    0.78097    0.42083    1.000
    Si1672   Si       0.27038    0.85587    0.47944    1.000
    Si1673   Si       0.24986    0.82335    0.41734    1.000
    Si1674   Si       0.23216    0.76319    0.45353    1.000
    Si1675   Si       0.27284    0.76468    0.38597    1.000
    N1676    N        0.22902    0.86607    0.48427    1.000
    Si1677   Si       0.27273    0.92612    0.44934    1.000
    Si1678   Si       0.25001    0.92376    0.37876    1.000
    N1679    N        0.22812    0.93089    0.45007    1.000
    Si1680   Si       0.23073    0.98134    0.45632    1.000
    N1681    N        0.26084    0.00152    0.37159    1.000
    N1682    N        0.27416    0.96774    0.46037    1.000
    N1683    N        0.28465    0.92415    0.40848    1.000
    Si1684   Si       0.24253    0.79768    0.51599    1.000
    N1685    N        0.23526    0.81018    0.55761    1.000
    Si1686   Si       0.24607    0.76859    0.57059    1.000
    N1687    N        0.24150    0.98488    0.70216    1.000
    Si1688   Si       0.22176    0.81366    0.63822    1.000
    Si1689   Si       0.26595    0.96061    0.56070    1.000
    N1690    N        0.27714    0.99551    0.53862    1.000
    N1691    N        0.27173    0.92553    0.53707    1.000
    N1692    N        0.26117    0.82752    0.62737    1.000
    Si1693   Si       0.24413    0.87016    0.62987    1.000
    N1694    N        0.23751    0.88454    0.72139    1.000
    Si1695   Si       0.27525    0.94188    0.63646    1.000
    N1696    N        0.23451    0.95433    0.64154    1.000
    N1697    N        0.27427    0.89925    0.63984    1.000
    N1698    N        0.24707    0.81716    0.85932    1.000
    Si1699   Si       0.25873    0.77805    0.77112    1.000
    Si1700   Si       0.25790    0.77865    0.84046    1.000
    N1701    N        0.27123    0.81797    0.75786    1.000
    N1702    N        0.25883    0.88051    0.78012    1.000
    Si1703   Si       0.24566    0.85176    0.74925    1.000
    N1704    N        0.28365    0.76840    0.80383    1.000
    N1705    N        0.27359    0.88661    0.85335    1.000
    Si1706   Si       0.26298    0.92882    0.86288    1.000
    Si1707   Si       0.24933    0.91262    0.75013    1.000
    N1708    N        0.24493    0.99688    0.86623    1.000
    Si1709   Si       0.27288    0.84778    0.87636    1.000
    N1710    N        0.26242    0.78593    0.92442    1.000
    N1711    N        0.23546    0.82841    0.98033    1.000
    N1712    N        0.26190    0.85491    0.91751    1.000
    Si1713   Si       0.26136    0.82212    0.94675    1.000
    N1714    N        0.22731    0.93715    0.84225    1.000
    N1715    N        0.25573    0.92087    0.90670    1.000
    N1716    N        0.26368    0.89505    0.97337    1.000
    Si1717   Si       0.27775    0.89539    0.93110    1.000
    Si1718   Si       0.26545    0.93578    0.98403    1.000
    N1719    N        0.22668    0.95053    0.96781    1.000
    N1720    N        0.28298    0.93536    0.73744    1.000
    Si1721   Si       0.32031    0.07230    0.10543    1.000
    N1722    N        0.30500    0.03653    0.08081    1.000
    N1723    N        0.29568    0.10690    0.09572    1.000
    Si1724   Si       0.32501    0.10279    0.01046    1.000
    N1725    N        0.29373    0.07274    0.00921    1.000
    Si1726   Si       0.29258    0.03070    0.99748    1.000
    N1727    N        0.31029    0.13957    0.03126    1.000
    Si1728   Si       0.30383    0.14427    0.07594    1.000
    N1729    N        0.32309    0.23087    0.10236    1.000
    N1730    N        0.32725    0.20900    0.03303    1.000
    Si1731   Si       0.31333    0.24078    0.06094    1.000
    Si1732   Si       0.32172    0.23940    0.00330    1.000
    Si1733   Si       0.28741    0.16143    0.00056    1.000
    Si1734   Si       0.28971    0.20553    0.11525    1.000
    Si1735   Si       0.29216    0.08488    0.17155    1.000
    Si1736   Si       0.31571    0.08656    0.22957    1.000
    N1737    N        0.32916    0.09982    0.18855    1.000
    N1738    N        0.30731    0.05533    0.14428    1.000
    Si1739   Si       0.31232    0.01273    0.14948    1.000
    N1740    N        0.28305    0.06531    0.20974    1.000
    N1741    N        0.33828    0.23550    0.22814    1.000
    N1742    N        0.29002    0.17086    0.14141    1.000
    Si1743   Si       0.31383    0.23873    0.19282    1.000
    Si1744   Si       0.32352    0.17610    0.16968    1.000
    N1745    N        0.31098    0.16545    0.20987    1.000
    N1746    N        0.33658    0.21625    0.16519    1.000
    Si1747   Si       0.33978    0.15236    0.24151    1.000
    Si1748   Si       0.32700    0.00527    0.05969    1.000
    N1749    N        0.30639    0.08486    0.32747    1.000
    N1750    N        0.31933    0.11742    0.25986    1.000
    Si1751   Si       0.29461    0.11580    0.29704    1.000
    N1752    N        0.29844    0.01200    0.32267    1.000
    Si1753   Si       0.28402    0.05102    0.34480    1.000
    Si1754   Si       0.33925    0.01164    0.30208    1.000
    N1755    N        0.29346    0.15740    0.31723    1.000
    Si1756   Si       0.32257    0.21855    0.26360    1.000
    Si1757   Si       0.30054    0.24036    0.33044    1.000
    Si1758   Si       0.32413    0.17242    0.34584    1.000
    N1759    N        0.33136    0.23987    0.30154    1.000
    N1760    N        0.30804    0.21162    0.36065    1.000
    N1761    N        0.31023    0.01739    0.42483    1.000
    Si1762   Si       0.32936    0.04896    0.40327    1.000
    N1763    N        0.28387    0.05950    0.38737    1.000
    N1764    N        0.31962    0.13093    0.44402    1.000
    N1765    N        0.28167    0.24697    0.42216    1.000
    Si1766   Si       0.29915    0.14531    0.40811    1.000
    Si1767   Si       0.28599    0.25035    0.46641    1.000
    N1768    N        0.33008    0.14459    0.37913    1.000
    N1769    N        0.30489    0.21581    0.48112    1.000
    Si1770   Si       0.28679    0.11518    0.46798    1.000
    N1771    N        0.28097    0.18226    0.42146    1.000
    Si1772   Si       0.31417    0.05841    0.58484    1.000
    N1773    N        0.31872    0.04903    0.54140    1.000
    N1774    N        0.30013    0.02460    0.60606    1.000
    N1775    N        0.28458    0.08931    0.57670    1.000
    N1776    N        0.34434    0.15243    0.58266    1.000
    Si1777   Si       0.28267    0.07654    0.52937    1.000
    N1778    N        0.31001    0.10256    0.50230    1.000
    N1779    N        0.28617    0.16369    0.55059    1.000
    N1780    N        0.33240    0.22553    0.54147    1.000
    Si1781   Si       0.29678    0.15329    0.59237    1.000
    N1782    N        0.30037    0.19697    0.60107    1.000
    Si1783   Si       0.29734    0.20644    0.55915    1.000
    N1784    N        0.33154    0.07417    0.64555    1.000
    Si1785   Si       0.30546    0.11274    0.72783    1.000
    Si1786   Si       0.29469    0.10508    0.65932    1.000
    Si1787   Si       0.32326    0.04635    0.67777    1.000
    N1788    N        0.30093    0.08103    0.70066    1.000
    N1789    N        0.28588    0.02303    0.67696    1.000
    Si1790   Si       0.31374    0.24776    0.70415    1.000
    N1791    N        0.32363    0.24581    0.66169    1.000
    Si1792   Si       0.29667    0.22455    0.63381    1.000
    N1793    N        0.33436    0.14282    0.71506    1.000
    N1794    N        0.30973    0.13252    0.62997    1.000
    N1795    N        0.32826    0.21057    0.72109    1.000
    N1796    N        0.31702    0.09890    0.76787    1.000
    Si1797   Si       0.33016    0.01586    0.80652    1.000
    N1798    N        0.28893    0.02488    0.81846    1.000
    N1799    N        0.31176    0.22254    0.79191    1.000
    N1800    N        0.29726    0.15407    0.80199    1.000
    Si1801   Si       0.30239    0.16821    0.86756    1.000
    Si1802   Si       0.32251    0.25693    0.81558    1.000
    N1803    N        0.28664    0.24115    0.97839    1.000
    N1804    N        0.32796    0.21714    0.92668    1.000
    N1805    N        0.30949    0.03180    0.95693    1.000
    N1806    N        0.30144    0.02690    0.88731    1.000
    Si1807   Si       0.31056    0.11209    0.89420    1.000
    N1808    N        0.33834    0.08385    0.87832    1.000
    Si1809   Si       0.28432    0.04424    0.92322    1.000
    N1810    N        0.28481    0.08779    0.91877    1.000
    N1811    N        0.32046    0.16735    0.97436    1.000
    N1812    N        0.32694    0.15105    0.90363    1.000
    Si1813   Si       0.30866    0.17770    0.93372    1.000
    Si1814   Si       0.31302    0.32880    0.10447    1.000
    N1815    N        0.31086    0.35078    0.02203    1.000
    N1816    N        0.31874    0.27381    0.03192    1.000
    Si1817   Si       0.33186    0.31528    0.03455    1.000
    N1818    N        0.30717    0.37222    0.10556    1.000
    N1819    N        0.33141    0.49282    0.10699    1.000
    N1820    N        0.32117    0.50265    0.03577    1.000
    N1821    N        0.28757    0.42424    0.05716    1.000
    Si1822   Si       0.28580    0.41031    0.09952    1.000
    Si1823   Si       0.30597    0.36001    0.22269    1.000
    N1824    N        0.30871    0.27614    0.17348    1.000
    Si1825   Si       0.33977    0.30601    0.17966    1.000
    N1826    N        0.33678    0.33251    0.21394    1.000
    N1827    N        0.33552    0.33023    0.14277    1.000
    N1828    N        0.30304    0.43223    0.13281    1.000
    Si1829   Si       0.28480    0.38724    0.03141    1.000
    Si1830   Si       0.31948    0.47552    0.20988    1.000
    N1831    N        0.28905    0.38284    0.18717    1.000
    Si1832   Si       0.31366    0.47436    0.14088    1.000
    Si1833   Si       0.31286    0.41833    0.17422    1.000
    N1834    N        0.28940    0.44820    0.19628    1.000
    N1835    N        0.34215    0.46535    0.17230    1.000
    N1836    N        0.34420    0.32418    0.07571    1.000
    N1837    N        0.32479    0.34206    0.33445    1.000
    Si1838   Si       0.33325    0.30323    0.35291    1.000
    N1839    N        0.29611    0.28045    0.34476    1.000
    Si1840   Si       0.32246    0.46701    0.35503    1.000
    N1841    N        0.28891    0.45260    0.33180    1.000
    Si1842   Si       0.29963    0.39341    0.45645    1.000
    N1843    N        0.30909    0.39516    0.24727    1.000
    Si1844   Si       0.31897    0.26868    0.42079    1.000
    N1845    N        0.31244    0.28425    0.46235    1.000
    Si1846   Si       0.30829    0.32279    0.48398    1.000
    N1847    N        0.31186    0.35303    0.45218    1.000
    N1848    N        0.33213    0.30194    0.39683    1.000
    Si1849   Si       0.34093    0.33574    0.42510    1.000
    Si1850   Si       0.29247    0.45758    0.42202    1.000
    N1851    N        0.31330    0.40978    0.49520    1.000
    Si1852   Si       0.32289    0.40076    0.38887    1.000
    N1853    N        0.31470    0.42073    0.42614    1.000
    N1854    N        0.31120    0.48362    0.39415    1.000
    N1855    N        0.34158    0.42960    0.36475    1.000
    N1856    N        0.34079    0.46240    0.24656    1.000
    N1857    N        0.30279    0.31323    0.56773    1.000
    Si1858   Si       0.29670    0.29878    0.60676    1.000
    N1859    N        0.30211    0.37904    0.55945    1.000
    Si1860   Si       0.34010    0.32369    0.55292    1.000
    Si1861   Si       0.33325    0.38505    0.59031    1.000
    Si1862   Si       0.33581    0.45065    0.56606    1.000
    N1863    N        0.29453    0.44504    0.55422    1.000
    Si1864   Si       0.28978    0.40844    0.53101    1.000
    N1865    N        0.33494    0.49204    0.57986    1.000
    N1866    N        0.30851    0.50308    0.51419    1.000
    Si1867   Si       0.32026    0.33168    0.71301    1.000
    N1868    N        0.29038    0.34892    0.68672    1.000
    N1869    N        0.33572    0.30464    0.62794    1.000
    N1870    N        0.33036    0.28552    0.71921    1.000
    N1871    N        0.33000    0.37134    0.63104    1.000
    N1872    N        0.32640    0.41380    0.68797    1.000
    Si1873   Si       0.30642    0.38546    0.66477    1.000
    Si1874   Si       0.32482    0.43642    0.72397    1.000
    N1875    N        0.33410    0.47824    0.72578    1.000
    N1876    N        0.34013    0.33315    0.51041    1.000
    Si1877   Si       0.30195    0.32344    0.77952    1.000
    N1878    N        0.29137    0.26953    0.84530    1.000
    N1879    N        0.32894    0.28874    0.78654    1.000
    N1880    N        0.32368    0.34824    0.75233    1.000
    Si1881   Si       0.29549    0.37903    0.83142    1.000
    N1882    N        0.28832    0.33718    0.81875    1.000
    N1883    N        0.33304    0.39227    0.80882    1.000
    Si1884   Si       0.31111    0.42848    0.78762    1.000
    N1885    N        0.32728    0.46676    0.80230    1.000
    N1886    N        0.30257    0.45409    0.86348    1.000
    Si1887   Si       0.33700    0.47261    0.84288    1.000
    N1888    N        0.29013    0.43325    0.74877    1.000
    N1889    N        0.30617    0.35441    0.94065    1.000
    Si1890   Si       0.31710    0.36767    0.98107    1.000
    N1891    N        0.32369    0.28311    0.93613    1.000
    N1892    N        0.30429    0.32715    0.88538    1.000
    Si1893   Si       0.32990    0.32243    0.92246    1.000
    N1894    N        0.28788    0.38791    0.87386    1.000
    Si1895   Si       0.28556    0.26225    0.93896    1.000
    N1896    N        0.28964    0.40135    0.99080    1.000
    Si1897   Si       0.30577    0.42268    0.89501    1.000
    Si1898   Si       0.31748    0.49363    0.99411    1.000
    N1899    N        0.32615    0.45335    0.97930    1.000
    Si1900   Si       0.28571    0.43864    0.97174    1.000
    N1901    N        0.30695    0.55656    0.07812    1.000
    Si1902   Si       0.32508    0.58217    0.04818    1.000
    N1903    N        0.29921    0.60826    0.02428    1.000
    Si1904   Si       0.31040    0.51371    0.07485    1.000
    Si1905   Si       0.31618    0.63887    0.09187    1.000
    Si1906   Si       0.30970    0.65159    0.01965    1.000
    N1907    N        0.30493    0.66788    0.06099    1.000
    Si1908   Si       0.29341    0.74839    0.02546    1.000
    Si1909   Si       0.28495    0.75002    0.10084    1.000
    N1910    N        0.33456    0.65330    0.12874    1.000
    Si1911   Si       0.28580    0.62275    0.21228    1.000
    N1912    N        0.30777    0.51807    0.20914    1.000
    N1913    N        0.29745    0.58640    0.23493    1.000
    Si1914   Si       0.32503    0.55153    0.23196    1.000
    N1915    N        0.30899    0.56630    0.14979    1.000
    N1916    N        0.32397    0.62678    0.18695    1.000
    Si1917   Si       0.34024    0.58963    0.17174    1.000
    Si1918   Si       0.29963    0.71550    0.16309    1.000
    N1919    N        0.33228    0.70030    0.18757    1.000
    Si1920   Si       0.29543    0.64033    0.15189    1.000
    Si1921   Si       0.28641    0.57321    0.11318    1.000
    N1922    N        0.31597    0.73793    0.12914    1.000
    N1923    N        0.32465    0.74471    0.99480    1.000
    Si1924   Si       0.32341    0.53315    0.34058    1.000
    Si1925   Si       0.31117    0.60804    0.31880    1.000
    N1926    N        0.29401    0.60612    0.35987    1.000
    N1927    N        0.33372    0.56893    0.31812    1.000
    N1928    N        0.28368    0.51784    0.33455    1.000
    N1929    N        0.30287    0.72306    0.33498    1.000
    N1930    N        0.33976    0.63950    0.30847    1.000
    Si1931   Si       0.30280    0.69827    0.37543    1.000
    Si1932   Si       0.31032    0.68922    0.24932    1.000
    N1933    N        0.33952    0.67636    0.36384    1.000
    N1934    N        0.29188    0.59067    0.43150    1.000
    N1935    N        0.32878    0.54804    0.38277    1.000
    N1936    N        0.32177    0.53083    0.45279    1.000
    Si1937   Si       0.29877    0.56327    0.46800    1.000
    Si1938   Si       0.31639    0.58732    0.39352    1.000
    Si1939   Si       0.33344    0.51720    0.41170    1.000
    N1940    N        0.29785    0.73129    0.40227    1.000
    Si1941   Si       0.30190    0.74399    0.44479    1.000
    Si1942   Si       0.33317    0.67710    0.45097    1.000
    N1943    N        0.30774    0.66272    0.41876    1.000
    N1944    N        0.32637    0.71752    0.46810    1.000
    N1945    N        0.28704    0.64277    0.47670    1.000
    N1946    N        0.32795    0.73018    0.24335    1.000
    Si1947   Si       0.31948    0.59843    0.57620    1.000
    N1948    N        0.32207    0.55894    0.55799    1.000
    N1949    N        0.29137    0.60462    0.60734    1.000
    Si1950   Si       0.30684    0.51649    0.55754    1.000
    Si1951   Si       0.31993    0.62948    0.50338    1.000
    N1952    N        0.32553    0.65510    0.64740    1.000
    N1953    N        0.32169    0.63246    0.54862    1.000
    N1954    N        0.29455    0.69707    0.52753    1.000
    Si1955   Si       0.29071    0.66613    0.55776    1.000
    Si1956   Si       0.33185    0.70225    0.50681    1.000
    N1957    N        0.28867    0.67729    0.59976    1.000
    Si1958   Si       0.28282    0.56895    0.62989    1.000
    N1959    N        0.30302    0.52994    0.62672    1.000
    N1960    N        0.30675    0.55275    0.72120    1.000
    Si1961   Si       0.31018    0.58534    0.69393    1.000
    N1962    N        0.30596    0.62440    0.71254    1.000
    Si1963   Si       0.33786    0.52152    0.72088    1.000
    Si1964   Si       0.29876    0.72728    0.72529    1.000
    N1965    N        0.32588    0.75277    0.70208    1.000
    Si1966   Si       0.28766    0.64505    0.62807    1.000
    N1967    N        0.29365    0.69212    0.69942    1.000
    N1968    N        0.32270    0.72456    0.63575    1.000
    Si1969   Si       0.32219    0.65944    0.69427    1.000
    N1970    N        0.34285    0.58798    0.66646    1.000
    Si1971   Si       0.28350    0.71614    0.61700    1.000
    N1972    N        0.32416    0.58750    0.49621    1.000
    N1973    N        0.31641    0.57035    0.83886    1.000
    Si1974   Si       0.30629    0.53107    0.85586    1.000
    N1975    N        0.29097    0.59839    0.77403    1.000
    Si1976   Si       0.28756    0.59477    0.81661    1.000
    Si1977   Si       0.29911    0.63354    0.75289    1.000
    N1978    N        0.28599    0.63703    0.83039    1.000
    N1979    N        0.33445    0.65360    0.76874    1.000
    N1980    N        0.32563    0.71796    0.82819    1.000
    N1981    N        0.32363    0.71972    0.76277    1.000
    Si1982   Si       0.28645    0.71988    0.84708    1.000
    Si1983   Si       0.32590    0.75211    0.79394    1.000
    Si1984   Si       0.33848    0.69097    0.79129    1.000
    Si1985   Si       0.31934    0.53263    0.92886    1.000
    Si1986   Si       0.30664    0.60928    0.93376    1.000
    N1987    N        0.29735    0.51871    0.96479    1.000
    N1988    N        0.29194    0.53282    0.89512    1.000
    N1989    N        0.33135    0.57324    0.93156    1.000
    N1990    N        0.30136    0.63556    0.90163    1.000
    N1991    N        0.33877    0.62894    0.95596    1.000
    Si1992   Si       0.31087    0.73413    0.95455    1.000
    N1993    N        0.28882    0.68994    0.87895    1.000
    Si1994   Si       0.32062    0.67647    0.90246    1.000
    N1995    N        0.32341    0.69567    0.93955    1.000
    N1996    N        0.31125    0.82878    0.08418    1.000
    Si1997   Si       0.29861    0.81647    0.00743    1.000
    Si1998   Si       0.28873    0.86155    0.06753    1.000
    Si1999   Si       0.33369    0.79558    0.06865    1.000
    N2000    N        0.33840    0.80830    0.02503    1.000
    N2001    N        0.30885    0.76077    0.06512    1.000
    Si2002   Si       0.30665    0.93796    0.04944    1.000
    N2003    N        0.32180    0.96634    0.07724    1.000
    N2004    N        0.30493    0.90093    0.07425    1.000
    N2005    N        0.31754    0.99921    0.01792    1.000
    N2006    N        0.33672    0.92996    0.01699    1.000
    Si2007   Si       0.30508    0.91518    0.12131    1.000
    Si2008   Si       0.28567    0.89883    0.23448    1.000
    Si2009   Si       0.34301    0.79966    0.18940    1.000
    Si2010   Si       0.31760    0.83726    0.12588    1.000
    N2011    N        0.31654    0.79790    0.22452    1.000
    N2012    N        0.31632    0.80529    0.15376    1.000
    N2013    N        0.31029    0.86627    0.21885    1.000
    N2014    N        0.29659    0.87598    0.13360    1.000
    N2015    N        0.30481    0.93678    0.22513    1.000
    Si2016   Si       0.32107    0.95611    0.19205    1.000
    N2017    N        0.29892    0.94300    0.15929    1.000
    N2018    N        0.31805    0.99906    0.19366    1.000
    N2019    N        0.32597    0.77888    0.29445    1.000
    Si2020   Si       0.29626    0.82819    0.35988    1.000
    Si2021   Si       0.33240    0.82018    0.30179    1.000
    N2022    N        0.29609    0.83556    0.31735    1.000
    N2023    N        0.30159    0.78534    0.36230    1.000
    Si2024   Si       0.31073    0.76719    0.25520    1.000
    Si2025   Si       0.32518    0.76021    0.33418    1.000
    N2026    N        0.33681    0.88925    0.33620    1.000
    Si2027   Si       0.32392    0.88908    0.29533    1.000
    Si2028   Si       0.31843    0.95576    0.26203    1.000
    Si2029   Si       0.29133    0.97833    0.35114    1.000
    N2030    N        0.33555    0.99580    0.26205    1.000
    N2031    N        0.34596    0.92564    0.27997    1.000
    Si2032   Si       0.32615    0.93615    0.40412    1.000
    N2033    N        0.32680    0.84134    0.38745    1.000
    Si2034   Si       0.32251    0.82988    0.42872    1.000
    N2035    N        0.31933    0.78578    0.44551    1.000
    N2036    N        0.28863    0.89673    0.47727    1.000
    Si2037   Si       0.31305    0.98786    0.45644    1.000
    N2038    N        0.32549    0.96794    0.37401    1.000
    N2039    N        0.33706    0.95249    0.44477    1.000
    N2040    N        0.33422    0.00341    0.49067    1.000
    N2041    N        0.30829    0.80894    0.57384    1.000
    Si2042   Si       0.31252    0.82750    0.53327    1.000
    N2043    N        0.31489    0.87067    0.53932    1.000
    N2044    N        0.32231    0.86354    0.61264    1.000
    Si2045   Si       0.31916    0.77083    0.59420    1.000
    Si2046   Si       0.30279    0.82610    0.61606    1.000
    Si2047   Si       0.32079    0.98730    0.59897    1.000
    Si2048   Si       0.30475    0.90618    0.51618    1.000
    N2049    N        0.28661    0.95820    0.59883    1.000
    N2050    N        0.33839    0.98143    0.55980    1.000
    N2051    N        0.34129    0.92960    0.51168    1.000
    Si2052   Si       0.33738    0.75778    0.66050    1.000
    N2053    N        0.32217    0.79031    0.63296    1.000
    N2054    N        0.31790    0.86537    0.68476    1.000
    N2055    N        0.29986    0.95702    0.66720    1.000
    Si2056   Si       0.31550    0.88644    0.64813    1.000
    N2057    N        0.31944    0.98893    0.72567    1.000
    N2058    N        0.27716    0.82340    0.50658    1.000
    Si2059   Si       0.28543    0.98167    0.69917    1.000
    Si2060   Si       0.31899    0.00841    0.53049    1.000
    N2061    N        0.30844    0.84112    0.81425    1.000
    Si2062   Si       0.31268    0.82450    0.77283    1.000
    N2063    N        0.33169    0.78778    0.76415    1.000
    N2064    N        0.33317    0.85712    0.75370    1.000
    Si2065   Si       0.28703    0.87885    0.81288    1.000
    Si2066   Si       0.33640    0.83391    0.84786    1.000
    Si2067   Si       0.31857    0.95446    0.75227    1.000
    N2068    N        0.32658    0.97468    0.79006    1.000
    N2069    N        0.31700    0.90703    0.79990    1.000
    Si2070   Si       0.32403    0.94508    0.81930    1.000
    N2071    N        0.29489    0.95703    0.84928    1.000
    Si2072   Si       0.28770    0.00062    0.85629    1.000
    N2073    N        0.29709    0.95401    0.96409    1.000
    N2074    N        0.30792    0.82219    0.87926    1.000
    N2075    N        0.32482    0.76752    0.92804    1.000
    Si2076   Si       0.33184    0.85373    0.95322    1.000
    Si2077   Si       0.29675    0.78455    0.89879    1.000
    N2078    N        0.30027    0.82916    0.96602    1.000
    Si2079   Si       0.32785    0.96456    0.99209    1.000
    N2080    N        0.31933    0.88702    0.92609    1.000
    N2081    N        0.28357    0.75789    0.86716    1.000
    Si2082   Si       0.37483    0.06048    0.06280    1.000
    N2083    N        0.36199    0.07866    0.10173    1.000
    N2084    N        0.36786    0.01897    0.06272    1.000
    N2085    N        0.35753    0.08286    0.03136    1.000
    N2086    N        0.37906    0.15691    0.01565    1.000
    Si2087   Si       0.37065    0.16412    0.11573    1.000
    Si2088   Si       0.34423    0.16966    0.04038    1.000
    N2089    N        0.39251    0.25447    0.04797    1.000
    N2090    N        0.34391    0.16089    0.08202    1.000
    N2091    N        0.38528    0.20349    0.11842    1.000
    Si2092   Si       0.36546    0.12184    0.18471    1.000
    N2093    N        0.34654    0.05812    0.23837    1.000
    N2094    N        0.38228    0.01685    0.20301    1.000
    N2095    N        0.39771    0.09818    0.16768    1.000
    Si2096   Si       0.39466    0.09632    0.12344    1.000
    Si2097   Si       0.34370    0.01602    0.22377    1.000
    N2098    N        0.37623    0.13999    0.22209    1.000
    N2099    N        0.35600    0.15263    0.15503    1.000
    Si2100   Si       0.35657    0.23297    0.12902    1.000
    Si2101   Si       0.37795    0.25290    0.22711    1.000
    N2102    N        0.35905    0.04983    0.30074    1.000
    N2103    N        0.37973    0.09896    0.34298    1.000
    Si2104   Si       0.38036    0.06401    0.26580    1.000
    Si2105   Si       0.34802    0.07076    0.33747    1.000
    N2106    N        0.34625    0.03520    0.36440    1.000
    N2107    N        0.39606    0.10367    0.27578    1.000
    Si2108   Si       0.37101    0.13754    0.36232    1.000
    Si2109   Si       0.37927    0.18775    0.29617    1.000
    N2110    N        0.36429    0.16590    0.33093    1.000
    N2111    N        0.39628    0.22611    0.30468    1.000
    N2112    N        0.34738    0.18324    0.26843    1.000
    N2113    N        0.37712    0.11040    0.46049    1.000
    N2114    N        0.35769    0.08365    0.41038    1.000
    Si2115   Si       0.35925    0.12558    0.42315    1.000
    Si2116   Si       0.39254    0.07449    0.43991    1.000
    N2117    N        0.38723    0.03330    0.44541    1.000
    Si2118   Si       0.37749    0.01166    0.48309    1.000
    Si2119   Si       0.34753    0.12243    0.49048    1.000
    N2120    N        0.39256    0.14593    0.39823    1.000
    Si2121   Si       0.38802    0.23660    0.44645    1.000
    N2122    N        0.37777    0.23113    0.48752    1.000
    N2123    N        0.34958    0.23770    0.42553    1.000
    N2124    N        0.36849    0.10882    0.52630    1.000
    N2125    N        0.35574    0.07404    0.58367    1.000
    N2126    N        0.38275    0.04026    0.51574    1.000
    Si2127   Si       0.36025    0.06988    0.54085    1.000
    Si2128   Si       0.36676    0.14755    0.54535    1.000
    Si2129   Si       0.36263    0.24566    0.56437    1.000
    N2130    N        0.36507    0.23812    0.60779    1.000
    N2131    N        0.35217    0.16696    0.50776    1.000
    N2132    N        0.35173    0.18307    0.65411    1.000
    N2133    N        0.39716    0.22161    0.55341    1.000
    Si2134   Si       0.34343    0.20997    0.50203    1.000
    Si2135   Si       0.36460    0.08594    0.62240    1.000
    N2136    N        0.37874    0.12444    0.63291    1.000
    N2137    N        0.36067    0.02708    0.68534    1.000
    N2138    N        0.38965    0.17290    0.71278    1.000
    Si2139   Si       0.34856    0.15170    0.62598    1.000
    Si2140   Si       0.34726    0.18079    0.69702    1.000
    Si2141   Si       0.38161    0.20829    0.63342    1.000
    Si2142   Si       0.37026    0.14552    0.73969    1.000
    Si2143   Si       0.37340    0.10008    0.85640    1.000
    N2144    N        0.35819    0.04345    0.78598    1.000
    N2145    N        0.35754    0.11342    0.81853    1.000
    Si2146   Si       0.35727    0.08672    0.78443    1.000
    Si2147   Si       0.39688    0.02232    0.78149    1.000
    N2148    N        0.38184    0.10771    0.75434    1.000
    N2149    N        0.39572    0.06475    0.85119    1.000
    N2150    N        0.35478    0.17085    0.77211    1.000
    N2151    N        0.36053    0.24823    0.83930    1.000
    Si2152   Si       0.37164    0.20726    0.84611    1.000
    N2153    N        0.37507    0.24045    0.76347    1.000
    N2154    N        0.34109    0.17628    0.84524    1.000
    Si2155   Si       0.35235    0.02346    0.95310    1.000
    N2156    N        0.36765    0.02610    0.91258    1.000
    N2157    N        0.38116    0.03849    0.98220    1.000
    N2158    N        0.35433    0.10778    0.97719    1.000
    N2159    N        0.39229    0.12938    0.88269    1.000
    Si2160   Si       0.34500    0.04051    0.87820    1.000
    Si2161   Si       0.38556    0.07955    0.99595    1.000
    Si2162   Si       0.37097    0.16110    0.90221    1.000
    Si2163   Si       0.35161    0.25145    0.94083    1.000
    Si2164   Si       0.35906    0.15124    0.97642    1.000
    N2165    N        0.38683    0.16286    0.94609    1.000
    N2166    N        0.38900    0.19623    0.88511    1.000
    N2167    N        0.35836    0.24877    0.98287    1.000
    Si2168   Si       0.34135    0.15270    0.80758    1.000
    Si2169   Si       0.34380    0.21144    0.76201    1.000
    Si2170   Si       0.38183    0.34525    0.07834    1.000
    N2171    N        0.38384    0.37442    0.04660    1.000
    Si2172   Si       0.38262    0.35668    0.00656    1.000
    N2173    N        0.38244    0.36652    0.11413    1.000
    N2174    N        0.36753    0.31565    0.00954    1.000
    Si2175   Si       0.38314    0.27363    0.00899    1.000
    N2176    N        0.37786    0.40265    0.23107    1.000
    Si2177   Si       0.40224    0.27537    0.08719    1.000
    Si2178   Si       0.37075    0.47635    0.09739    1.000
    N2179    N        0.36785    0.43639    0.08253    1.000
    N2180    N        0.38581    0.43568    0.01289    1.000
    Si2181   Si       0.38980    0.41706    0.05144    1.000
    N2182    N        0.38265    0.50748    0.06853    1.000
    N2183    N        0.38319    0.26861    0.12476    1.000
    N2184    N        0.37429    0.28258    0.19336    1.000
    Si2185   Si       0.36888    0.31876    0.24015    1.000
    Si2186   Si       0.34215    0.37279    0.13255    1.000
    N2187    N        0.34960    0.39801    0.16695    1.000
    Si2188   Si       0.38529    0.47409    0.17380    1.000
    N2189    N        0.39511    0.48199    0.13187    1.000
    Si2190   Si       0.38772    0.40396    0.18888    1.000
    N2191    N        0.38395    0.50100    0.20803    1.000
    N2192    N        0.36944    0.28881    0.33272    1.000
    N2193    N        0.37436    0.28050    0.26074    1.000
    N2194    N        0.36785    0.34762    0.27383    1.000
    N2195    N        0.38641    0.37305    0.33852    1.000
    Si2196   Si       0.35068    0.36567    0.30863    1.000
    Si2197   Si       0.36809    0.26096    0.29864    1.000
    Si2198   Si       0.40028    0.37000    0.25280    1.000
    Si2199   Si       0.37013    0.41699    0.33582    1.000
    Si2200   Si       0.39023    0.48803    0.32364    1.000
    N2201    N        0.35104    0.49767    0.34056    1.000
    N2202    N        0.34878    0.40808    0.29792    1.000
    Si2203   Si       0.36895    0.49595    0.24928    1.000
    N2204    N        0.39743    0.48925    0.27951    1.000
    Si2205   Si       0.34129    0.50568    0.48476    1.000
    Si2206   Si       0.34347    0.41951    0.25564    1.000
    Si2207   Si       0.37515    0.34978    0.48745    1.000
    Si2208   Si       0.38732    0.36511    0.38181    1.000
    N2209    N        0.37542    0.32895    0.44849    1.000
    N2210    N        0.34678    0.36836    0.39639    1.000
    Si2211   Si       0.35471    0.42482    0.49655    1.000
    Si2212   Si       0.39647    0.47635    0.45177    1.000
    N2213    N        0.36039    0.46589    0.47569    1.000
    N2214    N        0.38431    0.39207    0.48801    1.000
    N2215    N        0.37448    0.50355    0.42123    1.000
    N2216    N        0.40163    0.32372    0.38527    1.000
    N2217    N        0.36767    0.28890    0.55782    1.000
    N2218    N        0.36193    0.35593    0.57194    1.000
    Si2219   Si       0.40168    0.36023    0.58670    1.000
    Si2220   Si       0.38015    0.48105    0.68452    1.000
    N2221    N        0.34731    0.42510    0.59894    1.000
    N2222    N        0.36295    0.43426    0.53769    1.000
    Si2223   Si       0.38049    0.44479    0.61858    1.000
    Si2224   Si       0.39206    0.34103    0.71741    1.000
    N2225    N        0.39458    0.34691    0.62747    1.000
    N2226    N        0.39595    0.28280    0.64883    1.000
    N2227    N        0.35788    0.34059    0.68856    1.000
    Si2228   Si       0.35524    0.26850    0.63856    1.000
    Si2229   Si       0.35554    0.33973    0.64588    1.000
    N2230    N        0.36320    0.47777    0.64460    1.000
    N2231    N        0.38839    0.44112    0.70589    1.000
    N2232    N        0.39364    0.30557    0.74463    1.000
    N2233    N        0.37775    0.37337    0.86140    1.000
    Si2234   Si       0.35285    0.37728    0.76603    1.000
    Si2235   Si       0.35904    0.28020    0.75194    1.000
    N2236    N        0.39163    0.30773    0.86066    1.000
    N2237    N        0.39293    0.37355    0.75059    1.000
    N2238    N        0.38692    0.25999    0.91752    1.000
    Si2239   Si       0.39814    0.27046    0.84193    1.000
    N2240    N        0.35037    0.41953    0.75677    1.000
    Si2241   Si       0.36607    0.40294    0.83277    1.000
    N2242    N        0.37350    0.44250    0.85192    1.000
    N2243    N        0.39186    0.46516    0.77005    1.000
    Si2244   Si       0.35075    0.48236    0.76822    1.000
    Si2245   Si       0.39254    0.42752    0.74903    1.000
    N2246    N        0.37238    0.33403    0.92191    1.000
    Si2247   Si       0.37103    0.37659    0.90481    1.000
    Si2248   Si       0.39518    0.30118    0.90609    1.000
    N2249    N        0.38714    0.45165    0.94967    1.000
    N2250    N        0.36280    0.50640    0.98897    1.000
    N2251    N        0.35742    0.38468    0.98319    1.000
    Si2252   Si       0.38203    0.49321    0.95361    1.000
    Si2253   Si       0.36074    0.42819    0.97751    1.000
    N2254    N        0.34235    0.40774    0.90903    1.000
    N2255    N        0.40356    0.40697    0.81304    1.000
    Si2256   Si       0.38847    0.61432    0.07385    1.000
    N2257    N        0.35670    0.56195    0.02925    1.000
    Si2258   Si       0.36328    0.51843    0.03119    1.000
    Si2259   Si       0.39443    0.57858    0.01292    1.000
    N2260    N        0.34483    0.61403    0.07146    1.000
    N2261    N        0.40044    0.57407    0.08860    1.000
    N2262    N        0.34568    0.67172    0.00539    1.000
    Si2263   Si       0.39296    0.74725    0.08161    1.000
    N2264    N        0.39868    0.64887    0.10180    1.000
    N2265    N        0.38558    0.72377    0.11885    1.000
    N2266    N        0.40386    0.70669    0.06277    1.000
    N2267    N        0.35537    0.56628    0.20437    1.000
    N2268    N        0.37277    0.60088    0.14684    1.000
    Si2269   Si       0.39460    0.54271    0.20208    1.000
    Si2270   Si       0.35427    0.73168    0.20710    1.000
    Si2271   Si       0.35566    0.75265    0.13587    1.000
    Si2272   Si       0.34920    0.66137    0.19833    1.000
    N2273    N        0.39146    0.71873    0.22309    1.000
    N2274    N        0.38744    0.66399    0.17682    1.000
    Si2275   Si       0.37563    0.64376    0.14063    1.000
    N2276    N        0.34560    0.66180    0.24283    1.000
    Si2277   Si       0.36636    0.56392    0.28780    1.000
    N2278    N        0.37650    0.59849    0.26312    1.000
    N2279    N        0.34884    0.53330    0.26241    1.000
    N2280    N        0.39757    0.63128    0.34423    1.000
    N2281    N        0.39479    0.66755    0.28997    1.000
    Si2282   Si       0.36537    0.63811    0.27420    1.000
    Si2283   Si       0.36867    0.66401    0.33301    1.000
    N2284    N        0.36557    0.75595    0.35113    1.000
    Si2285   Si       0.39989    0.73249    0.36704    1.000
    N2286    N        0.35419    0.61006    0.39556    1.000
    Si2287   Si       0.39620    0.60403    0.37963    1.000
    Si2288   Si       0.39018    0.73845    0.49953    1.000
    N2289    N        0.39521    0.73383    0.40924    1.000
    N2290    N        0.36998    0.67095    0.42927    1.000
    Si2291   Si       0.34587    0.65138    0.39919    1.000
    N2292    N        0.34637    0.66274    0.49134    1.000
    N2293    N        0.38113    0.58848    0.54257    1.000
    N2294    N        0.35669    0.61083    0.59641    1.000
    Si2295   Si       0.38524    0.56711    0.58618    1.000
    N2296    N        0.36801    0.53614    0.50341    1.000
    Si2297   Si       0.34868    0.56686    0.52528    1.000
    N2298    N        0.36639    0.54425    0.62118    1.000
    Si2299   Si       0.36347    0.64363    0.56369    1.000
    Si2300   Si       0.37275    0.72052    0.57159    1.000
    N2301    N        0.36380    0.72151    0.52868    1.000
    N2302    N        0.35877    0.68213    0.58728    1.000
    N2303    N        0.39863    0.65515    0.53876    1.000
    Si2304   Si       0.34182    0.50722    0.61978    1.000
    N2305    N        0.36547    0.52352    0.68976    1.000
    Si2306   Si       0.37243    0.55584    0.66295    1.000
    Si2307   Si       0.35246    0.62064    0.64000    1.000
    N2308    N        0.36607    0.59555    0.73824    1.000
    Si2309   Si       0.39607    0.66798    0.67893    1.000
    Si2310   Si       0.34689    0.68813    0.62869    1.000
    N2311    N        0.39252    0.63577    0.65115    1.000
    N2312    N        0.38105    0.69987    0.65486    1.000
    N2313    N        0.36441    0.65858    0.70906    1.000
    Si2314   Si       0.39007    0.66281    0.49418    1.000
    N2315    N        0.37925    0.57803    0.80402    1.000
    Si2316   Si       0.35895    0.55775    0.83674    1.000
    N2317    N        0.35659    0.52539    0.76135    1.000
    Si2318   Si       0.38016    0.56251    0.75979    1.000
    N2319    N        0.34767    0.51498    0.84983    1.000
    N2320    N        0.38631    0.56129    0.87351    1.000
    N2321    N        0.37639    0.68183    0.81389    1.000
    Si2322   Si       0.36466    0.70939    0.84578    1.000
    N2323    N        0.39112    0.73984    0.85941    1.000
    N2324    N        0.36964    0.75104    0.79786    1.000
    N2325    N        0.35909    0.68464    0.88291    1.000
    N2326    N        0.38516    0.62219    0.90746    1.000
    Si2327   Si       0.36559    0.59831    0.94040    1.000
    Si2328   Si       0.37830    0.52068    0.88485    1.000
    N2329    N        0.39746    0.58810    0.97026    1.000
    N2330    N        0.35560    0.51026    0.92020    1.000
    Si2331   Si       0.39213    0.66366    0.90472    1.000
    N2332    N        0.39002    0.67785    0.94527    1.000
    Si2333   Si       0.35126    0.66985    0.96443    1.000
    N2334    N        0.40226    0.63755    0.77479    1.000
    Si2335   Si       0.36631    0.63675    0.74608    1.000
    N2336    N        0.36500    0.78045    0.10214    1.000
    Si2337   Si       0.35788    0.77045    0.00876    1.000
    N2338    N        0.38734    0.76620    0.04041    1.000
    Si2339   Si       0.38841    0.81663    0.11276    1.000
    N2340    N        0.37860    0.86918    0.03613    1.000
    Si2341   Si       0.37521    0.83238    0.00654    1.000
    Si2342   Si       0.35232    0.96365    0.10704    1.000
    N2343    N        0.38909    0.95868    0.08459    1.000
    Si2344   Si       0.36768    0.89943    0.00836    1.000
    N2345    N        0.34867    0.92140    0.12084    1.000
    N2346    N        0.36104    0.84827    0.12371    1.000
    N2347    N        0.36770    0.83394    0.20012    1.000
    Si2348   Si       0.35014    0.85953    0.23010    1.000
    N2349    N        0.36041    0.76238    0.17851    1.000
    Si2350   Si       0.40029    0.84875    0.17641    1.000
    Si2351   Si       0.37810    0.98877    0.17080    1.000
    N2352    N        0.37888    0.89295    0.23207    1.000
    Si2353   Si       0.37679    0.88821    0.12365    1.000
    N2354    N        0.34981    0.99392    0.13694    1.000
    Si2355   Si       0.39045    0.91612    0.19723    1.000
    N2356    N        0.39288    0.88934    0.16396    1.000
    N2357    N        0.36430    0.94998    0.18944    1.000
    Si2358   Si       0.38732    0.84311    0.29016    1.000
    N2359    N        0.37131    0.81940    0.32308    1.000
    Si2360   Si       0.39168    0.79117    0.34890    1.000
    N2361    N        0.34603    0.85513    0.27553    1.000
    N2362    N        0.39706    0.86597    0.36619    1.000
    N2363    N        0.36769    0.98530    0.32295    1.000
    Si2364   Si       0.38455    0.91214    0.27035    1.000
    Si2365   Si       0.35934    0.99315    0.36402    1.000
    Si2366   Si       0.35390    0.87271    0.37010    1.000
    Si2367   Si       0.34941    0.79740    0.47393    1.000
    N2368    N        0.35232    0.83826    0.45717    1.000
    Si2369   Si       0.38887    0.86239    0.46707    1.000
    N2370    N        0.38397    0.77094    0.46796    1.000
    N2371    N        0.39688    0.79938    0.39305    1.000
    Si2372   Si       0.40019    0.77326    0.42766    1.000
    N2373    N        0.35512    0.90462    0.40136    1.000
    N2374    N        0.38470    0.90448    0.46359    1.000
    Si2375   Si       0.36401    0.94044    0.47563    1.000
    N2376    N        0.39423    0.97225    0.47193    1.000
    N2377    N        0.39439    0.98514    0.38558    1.000
    Si2378   Si       0.39557    0.90036    0.42048    1.000
    N2379    N        0.40036    0.88336    0.29945    1.000
    N2380    N        0.37492    0.85057    0.56785    1.000
    Si2381   Si       0.38304    0.82744    0.52939    1.000
    N2382    N        0.34608    0.81103    0.51619    1.000
    Si2383   Si       0.39874    0.77614    0.58716    1.000
    N2384    N        0.35830    0.76128    0.58549    1.000
    Si2385   Si       0.34091    0.87599    0.57465    1.000
    N2386    N        0.36140    0.91421    0.57767    1.000
    Si2387   Si       0.36159    0.94610    0.54797    1.000
    Si2388   Si       0.38201    0.91706    0.61626    1.000
    Si2389   Si       0.34383    0.95789    0.66070    1.000
    Si2390   Si       0.34845    0.77721    0.72738    1.000
    N2391    N        0.38102    0.76489    0.66148    1.000
    N2392    N        0.39110    0.76499    0.72843    1.000
    N2393    N        0.36096    0.81409    0.70532    1.000
    N2394    N        0.38167    0.87951    0.71233    1.000
    Si2395   Si       0.34727    0.85351    0.71234    1.000
    Si2396   Si       0.39681    0.79262    0.69161    1.000
    Si2397   Si       0.36262    0.99485    0.71329    1.000
    N2398    N        0.37185    0.95821    0.69370    1.000
    N2399    N        0.34843    0.91588    0.64475    1.000
    N2400    N        0.35452    0.98159    0.62578    1.000
    Si2401   Si       0.38231    0.92301    0.71611    1.000
    N2402    N        0.35682    0.87173    0.85956    1.000
    N2403    N        0.36025    0.79989    0.83888    1.000
    Si2404   Si       0.39389    0.77439    0.82886    1.000
    N2405    N        0.38550    0.88696    0.79350    1.000
    Si2406   Si       0.38199    0.89963    0.83634    1.000
    Si2407   Si       0.38010    0.97889    0.84696    1.000
    N2408    N        0.36275    0.93999    0.83705    1.000
    Si2409   Si       0.34769    0.89236    0.77258    1.000
    N2410    N        0.35239    0.92658    0.74624    1.000
    N2411    N        0.34778    0.00861    0.84665    1.000
    N2412    N        0.39532    0.76847    0.92231    1.000
    N2413    N        0.35866    0.83529    0.92345    1.000
    N2414    N        0.37319    0.79333    0.97545    1.000
    Si2415   Si       0.36060    0.79292    0.93405    1.000
    N2416    N        0.36498    0.86715    0.97829    1.000
    Si2417   Si       0.35613    0.87493    0.90229    1.000
    N2418    N        0.36060    0.98114    0.96859    1.000
    N2419    N        0.38549    0.90176    0.91541    1.000
    Si2420   Si       0.39719    0.99758    0.98324    1.000
    N2421    N        0.39843    0.97038    0.88549    1.000
    N2422    N        0.39107    0.99497    0.74647    1.000
    Si2423   Si       0.44182    0.04970    0.07827    1.000
    N2424    N        0.41472    0.06586    0.04847    1.000
    N2425    N        0.43489    0.07533    0.11201    1.000
    N2426    N        0.45026    0.12574    0.03300    1.000
    Si2427   Si       0.44947    0.08348    0.02518    1.000
    N2428    N        0.43461    0.00872    0.08590    1.000
    N2429    N        0.40132    0.13465    0.10516    1.000
    Si2430   Si       0.42090    0.15766    0.02255    1.000
    N2431    N        0.43863    0.24556    0.09183    1.000
    Si2432   Si       0.43594    0.15720    0.09216    1.000
    N2433    N        0.42709    0.18209    0.05820    1.000
    Si2434   Si       0.42573    0.22557    0.05436    1.000
    Si2435   Si       0.43714    0.10053    0.18590    1.000
    Si2436   Si       0.42317    0.02982    0.21255    1.000
    N2437    N        0.44837    0.05695    0.18600    1.000
    N2438    N        0.44488    0.12241    0.22422    1.000
    N2439    N        0.44858    0.18459    0.12643    1.000
    N2440    N        0.41397    0.23233    0.23016    1.000
    Si2441   Si       0.42662    0.22038    0.12464    1.000
    Si2442   Si       0.44663    0.22580    0.19997    1.000
    N2443    N        0.42598    0.23619    0.16448    1.000
    N2444    N        0.43946    0.06909    0.31317    1.000
    Si2445   Si       0.44468    0.03343    0.28572    1.000
    Si2446   Si       0.41395    0.10304    0.31647    1.000
    N2447    N        0.41542    0.04237    0.25368    1.000
    Si2448   Si       0.45232    0.01456    0.34839    1.000
    N2449    N        0.43863    0.13689    0.32906    1.000
    N2450    N        0.41507    0.16847    0.27676    1.000
    Si2451   Si       0.42638    0.22862    0.33549    1.000
    Si2452   Si       0.45172    0.17080    0.30315    1.000
    Si2453   Si       0.41132    0.13361    0.25002    1.000
    N2454    N        0.41640    0.20606    0.37109    1.000
    Si2455   Si       0.45048    0.10916    0.46521    1.000
    N2456    N        0.43453    0.03676    0.38252    1.000
    N2457    N        0.43570    0.08473    0.43296    1.000
    Si2458   Si       0.41101    0.01270    0.41446    1.000
    Si2459   Si       0.45880    0.06918    0.40096    1.000
    Si2460   Si       0.44615    0.18942    0.46562    1.000
    Si2461   Si       0.43287    0.24215    0.39748    1.000
    N2462    N        0.43655    0.14866    0.46887    1.000
    N2463    N        0.41960    0.20652    0.43481    1.000
    Si2464   Si       0.42144    0.17739    0.40182    1.000
    N2465    N        0.42124    0.07423    0.56187    1.000
    Si2466   Si       0.42257    0.05332    0.59938    1.000
    Si2467   Si       0.43606    0.11594    0.56617    1.000
    Si2468   Si       0.42353    0.05310    0.52423    1.000
    N2469    N        0.44400    0.11988    0.60927    1.000
    N2470    N        0.44712    0.01646    0.52804    1.000
    N2471    N        0.41179    0.01071    0.58762    1.000
    N2472    N        0.44170    0.08235    0.49805    1.000
    N2473    N        0.40998    0.15106    0.55614    1.000
    Si2474   Si       0.42183    0.19027    0.57266    1.000
    Si2475   Si       0.41165    0.23433    0.51458    1.000
    N2476    N        0.40848    0.18184    0.61236    1.000
    N2477    N        0.44656    0.21029    0.50310    1.000
    N2478    N        0.41137    0.06998    0.70191    1.000
    Si2479   Si       0.41725    0.08595    0.73976    1.000
    N2480    N        0.45056    0.11605    0.73474    1.000
    N2481    N        0.39835    0.06088    0.63404    1.000
    Si2482   Si       0.39923    0.04092    0.67291    1.000
    Si2483   Si       0.41803    0.14338    0.63199    1.000
    N2484    N        0.40567    0.21942    0.66504    1.000
    N2485    N        0.43696    0.15003    0.67008    1.000
    Si2486   Si       0.42388    0.18833    0.68995    1.000
    N2487    N        0.45943    0.24611    0.62695    1.000
    Si2488   Si       0.42951    0.25511    0.65520    1.000
    N2489    N        0.42247    0.05703    0.77265    1.000
    Si2490   Si       0.43387    0.05628    0.86617    1.000
    N2491    N        0.45710    0.03761    0.83171    1.000
    N2492    N        0.45382    0.09525    0.87344    1.000
    N2493    N        0.45430    0.15381    0.85555    1.000
    N2494    N        0.40523    0.20496    0.81587    1.000
    Si2495   Si       0.41464    0.23497    0.78505    1.000
    Si2496   Si       0.44302    0.18516    0.82725    1.000
    N2497    N        0.45154    0.23534    0.75983    1.000
    N2498    N        0.42613    0.25032    0.86800    1.000
    N2499    N        0.42933    0.08741    0.98702    1.000
    N2500    N        0.43817    0.02546    0.89393    1.000
    Si2501   Si       0.43586    0.13099    0.89219    1.000
    N2502    N        0.44760    0.13449    0.93323    1.000
    N2503    N        0.44329    0.21054    0.92795    1.000
    Si2504   Si       0.41143    0.22702    0.90278    1.000
    Si2505   Si       0.43068    0.17281    0.95015    1.000
    N2506    N        0.44029    0.18050    0.99112    1.000
    Si2507   Si       0.45934    0.06122    0.79641    1.000
    N2508    N        0.41332    0.31400    0.07619    1.000
    N2509    N        0.45063    0.34917    0.11755    1.000
    Si2510   Si       0.45415    0.32523    0.08197    1.000
    N2511    N        0.43495    0.43146    0.05237    1.000
    Si2512   Si       0.42796    0.44626    0.00994    1.000
    N2513    N        0.44967    0.48483    0.00472    1.000
    Si2514   Si       0.40674    0.27536    0.16217    1.000
    N2515    N        0.41671    0.37105    0.17543    1.000
    Si2516   Si       0.43598    0.33745    0.19607    1.000
    N2517    N        0.43926    0.30123    0.17332    1.000
    Si2518   Si       0.42172    0.37485    0.13323    1.000
    N2519    N        0.40974    0.33632    0.23004    1.000
    N2520    N        0.45264    0.48967    0.16539    1.000
    Si2521   Si       0.44767    0.44447    0.15215    1.000
    N2522    N        0.43492    0.41453    0.12302    1.000
    N2523    N        0.41071    0.44030    0.18031    1.000
    N2524    N        0.43550    0.32751    0.32446    1.000
    Si2525   Si       0.42769    0.36855    0.32070    1.000
    N2526    N        0.43087    0.26668    0.35637    1.000
    Si2527   Si       0.40804    0.30119    0.34814    1.000
    N2528    N        0.42895    0.38650    0.28119    1.000
    Si2529   Si       0.44334    0.43821    0.33836    1.000
    N2530    N        0.45178    0.39610    0.34469    1.000
    N2531    N        0.42219    0.50407    0.34821    1.000
    N2532    N        0.40044    0.44533    0.33077    1.000
    N2533    N        0.44686    0.32328    0.44716    1.000
    N2534    N        0.41260    0.26878    0.42606    1.000
    Si2535   Si       0.44732    0.33901    0.48883    1.000
    Si2536   Si       0.40918    0.31085    0.42635    1.000
    N2537    N        0.45823    0.38120    0.48108    1.000
    Si2538   Si       0.42419    0.41108    0.48189    1.000
    Si2539   Si       0.44292    0.41896    0.41104    1.000
    N2540    N        0.42310    0.50356    0.48163    1.000
    N2541    N        0.41906    0.43840    0.44768    1.000
    Si2542   Si       0.44684    0.49144    0.38164    1.000
    N2543    N        0.41163    0.39126    0.40505    1.000
    N2544    N        0.45105    0.44954    0.38170    1.000
    N2545    N        0.43021    0.33106    0.57105    1.000
    N2546    N        0.42939    0.27222    0.52841    1.000
    N2547    N        0.40999    0.33430    0.51003    1.000
    Si2548   Si       0.40640    0.30706    0.54361    1.000
    N2549    N        0.46070    0.37708    0.63018    1.000
    N2550    N        0.41979    0.39935    0.57543    1.000
    N2551    N        0.43241    0.43671    0.51886    1.000
    Si2552   Si       0.44197    0.41150    0.61056    1.000
    Si2553   Si       0.42507    0.49794    0.58731    1.000
    N2554    N        0.40261    0.46085    0.58598    1.000
    N2555    N        0.45370    0.49127    0.54825    1.000
    Si2556   Si       0.40469    0.43408    0.55214    1.000
    N2557    N        0.42513    0.34403    0.68650    1.000
    Si2558   Si       0.41996    0.32001    0.65033    1.000
    N2559    N        0.44683    0.27381    0.68982    1.000
    N2560    N        0.45936    0.31040    0.63235    1.000
    Si2561   Si       0.45909    0.36891    0.67381    1.000
    N2562    N        0.42537    0.48301    0.67928    1.000
    Si2563   Si       0.42647    0.43838    0.68116    1.000
    N2564    N        0.45593    0.40733    0.69165    1.000
    N2565    N        0.41433    0.42713    0.63948    1.000
    Si2566   Si       0.42687    0.30942    0.77763    1.000
    N2567    N        0.41732    0.27489    0.80365    1.000
    N2568    N        0.44818    0.35069    0.86292    1.000
    N2569    N        0.41360    0.34132    0.80348    1.000
    Si2570   Si       0.40712    0.34519    0.84507    1.000
    Si2571   Si       0.42597    0.38356    0.78507    1.000
    Si2572   Si       0.42583    0.48357    0.78737    1.000
    N2573    N        0.43792    0.47056    0.82754    1.000
    Si2574   Si       0.41756    0.43537    0.84409    1.000
    N2575    N        0.43686    0.41944    0.75601    1.000
    N2576    N        0.45427    0.41835    0.85594    1.000
    N2577    N        0.45914    0.49396    0.76235    1.000
    N2578    N        0.40875    0.39058    0.92364    1.000
    Si2579   Si       0.41205    0.35121    0.94488    1.000
    N2580    N        0.42142    0.35175    0.98822    1.000
    N2581    N        0.43195    0.32064    0.92121    1.000
    N2582    N        0.42145    0.27354    0.98909    1.000
    Si2583   Si       0.44529    0.50115    0.91757    1.000
    N2584    N        0.44701    0.45789    0.91493    1.000
    Si2585   Si       0.42293    0.42982    0.93672    1.000
    N2586    N        0.44368    0.42548    0.97414    1.000
    N2587    N        0.41958    0.54276    0.02611    1.000
    N2588    N        0.44443    0.52958    0.10094    1.000
    Si2589   Si       0.41469    0.53880    0.06971    1.000
    N2590    N        0.41051    0.61249    0.03562    1.000
    Si2591   Si       0.43713    0.64020    0.01799    1.000
    Si2592   Si       0.42582    0.71733    0.02576    1.000
    N2593    N        0.45259    0.70368    0.11014    1.000
    N2594    N        0.42622    0.67980    0.00747    1.000
    Si2595   Si       0.41111    0.69072    0.10172    1.000
    N2596    N        0.42807    0.60057    0.20496    1.000
    N2597    N        0.44682    0.58931    0.13623    1.000
    N2598    N        0.41790    0.54668    0.23955    1.000
    Si2599   Si       0.40640    0.57488    0.13196    1.000
    Si2600   Si       0.45752    0.61093    0.17354    1.000
    N2601    N        0.40371    0.54078    0.15929    1.000
    Si2602   Si       0.42748    0.51131    0.13676    1.000
    Si2603   Si       0.42839    0.67657    0.19142    1.000
    Si2604   Si       0.43159    0.74067    0.21832    1.000
    N2605    N        0.43153    0.66651    0.23405    1.000
    N2606    N        0.45369    0.65283    0.16497    1.000
    N2607    N        0.44898    0.71542    0.18852    1.000
    Si2608   Si       0.42257    0.54728    0.34108    1.000
    Si2609   Si       0.42584    0.52244    0.27419    1.000
    N2610    N        0.44294    0.60972    0.27542    1.000
    N2611    N        0.40358    0.54672    0.30273    1.000
    Si2612   Si       0.41610    0.59161    0.24596    1.000
    Si2613   Si       0.42584    0.66424    0.32600    1.000
    N2614    N        0.44100    0.72653    0.26092    1.000
    Si2615   Si       0.41065    0.69460    0.25836    1.000
    N2616    N        0.40036    0.69517    0.34506    1.000
    Si2617   Si       0.46005    0.64511    0.26042    1.000
    N2618    N        0.43741    0.50921    0.41900    1.000
    N2619    N        0.40380    0.56242    0.44959    1.000
    Si2620   Si       0.42316    0.60171    0.44696    1.000
    Si2621   Si       0.40409    0.53662    0.41576    1.000
    N2622    N        0.40833    0.62412    0.48387    1.000
    N2623    N        0.42415    0.61957    0.40810    1.000
    Si2624   Si       0.40637    0.54184    0.48727    1.000
    N2625    N        0.40716    0.56099    0.37809    1.000
    Si2626   Si       0.40328    0.69881    0.43379    1.000
    N2627    N        0.40670    0.69972    0.47997    1.000
    Si2628   Si       0.45360    0.65072    0.39793    1.000
    N2629    N        0.44081    0.68532    0.41896    1.000
    Si2630   Si       0.41619    0.60492    0.52285    1.000
    N2631    N        0.41954    0.58823    0.60323    1.000
    Si2632   Si       0.44426    0.53684    0.54707    1.000
    N2633    N        0.43677    0.56329    0.51197    1.000
    N2634    N        0.45104    0.61973    0.54476    1.000
    N2635    N        0.40707    0.53263    0.56916    1.000
    Si2636   Si       0.44232    0.66079    0.55156    1.000
    N2637    N        0.41049    0.73074    0.59736    1.000
    Si2638   Si       0.45050    0.71508    0.60800    1.000
    N2639    N        0.45114    0.67157    0.59459    1.000
    N2640    N        0.42953    0.74334    0.51944    1.000
    Si2641   Si       0.44566    0.71175    0.49581    1.000
    N2642    N        0.41122    0.57205    0.67130    1.000
    Si2643   Si       0.42129    0.60419    0.64202    1.000
    Si2644   Si       0.43932    0.56195    0.70227    1.000
    N2645    N        0.41966    0.55084    0.74001    1.000
    N2646    N        0.45761    0.60110    0.71386    1.000
    N2647    N        0.44537    0.72412    0.65126    1.000
    N2648    N        0.43249    0.66743    0.70182    1.000
    Si2649   Si       0.44278    0.69668    0.73258    1.000
    Si2650   Si       0.40383    0.73280    0.64279    1.000
    N2651    N        0.45307    0.50897    0.61878    1.000
    N2652    N        0.41991    0.61778    0.84636    1.000
    N2653    N        0.44909    0.58796    0.78743    1.000
    Si2654   Si       0.45043    0.54052    0.76926    1.000
    Si2655   Si       0.41253    0.60455    0.80324    1.000
    N2656    N        0.42360    0.52515    0.80231    1.000
    N2657    N        0.42940    0.67764    0.88521    1.000
    Si2658   Si       0.44364    0.65273    0.85254    1.000
    N2659    N        0.44643    0.67836    0.81876    1.000
    N2660    N        0.41320    0.70878    0.76150    1.000
    Si2661   Si       0.41239    0.67584    0.79171    1.000
    N2662    N        0.46042    0.55502    0.97184    1.000
    Si2663   Si       0.43941    0.59047    0.95727    1.000
    N2664    N        0.44541    0.59382    0.91392    1.000
    Si2665   Si       0.41097    0.59546    0.88287    1.000
    N2666    N        0.45304    0.62454    0.98169    1.000
    Si2667   Si       0.43603    0.52323    0.99067    1.000
    Si2668   Si       0.40095    0.75061    0.76850    1.000
    N2669    N        0.41265    0.73547    0.98472    1.000
    N2670    N        0.45397    0.74604    0.90427    1.000
    Si2671   Si       0.42340    0.69557    0.96585    1.000
    N2672    N        0.46022    0.68599    0.94275    1.000
    N2673    N        0.41855    0.51328    0.95054    1.000
    Si2674   Si       0.44058    0.51161    0.84304    1.000
    N2675    N        0.41950    0.50980    0.88122    1.000
    Si2676   Si       0.41581    0.86328    0.05745    1.000
    Si2677   Si       0.42531    0.79357    0.04912    1.000
    N2678    N        0.41703    0.82108    0.01204    1.000
    N2679    N        0.43338    0.76450    0.08237    1.000
    N2680    N        0.40959    0.82325    0.07679    1.000
    N2681    N        0.44644    0.99617    0.22371    1.000
    Si2682   Si       0.42070    0.92952    0.08701    1.000
    N2683    N        0.43972    0.92575    0.04732    1.000
    Si2684   Si       0.42861    0.94148    0.00745    1.000
    N2685    N        0.41207    0.98017    0.02092    1.000
    N2686    N        0.40859    0.88959    0.09331    1.000
    N2687    N        0.45052    0.94632    0.11276    1.000
    Si2688   Si       0.40297    0.99239    0.06039    1.000
    N2689    N        0.41308    0.81630    0.14951    1.000
    Si2690   Si       0.45018    0.79612    0.16323    1.000
    Si2691   Si       0.43435    0.81612    0.22721    1.000
    N2692    N        0.43557    0.78055    0.20183    1.000
    N2693    N        0.43632    0.85110    0.20126    1.000
    N2694    N        0.42926    0.92839    0.20917    1.000
    Si2695   Si       0.43838    0.95587    0.24046    1.000
    N2696    N        0.41830    0.99203    0.15388    1.000
    Si2697   Si       0.44793    0.98849    0.12123    1.000
    Si2698   Si       0.45465    0.89374    0.20258    1.000
    N2699    N        0.42807    0.76340    0.34777    1.000
    N2700    N        0.40494    0.81783    0.26138    1.000
    N2701    N        0.45938    0.87552    0.34348    1.000
    N2702    N        0.44469    0.99392    0.43756    1.000
    Si2703   Si       0.41976    0.89227    0.33867    1.000
    N2704    N        0.41724    0.93550    0.34143    1.000
    N2705    N        0.43439    0.00034    0.31176    1.000
    Si2706   Si       0.40579    0.96666    0.31252    1.000
    N2707    N        0.40800    0.95153    0.27139    1.000
    N2708    N        0.44277    0.77885    0.43342    1.000
    Si2709   Si       0.42015    0.83684    0.39438    1.000
    N2710    N        0.41224    0.86026    0.42907    1.000
    Si2711   Si       0.42717    0.95784    0.37735    1.000
    Si2712   Si       0.42751    0.95589    0.44952    1.000
    N2713    N        0.45036    0.93351    0.47819    1.000
    N2714    N        0.42421    0.93192    0.41264    1.000
    N2715    N        0.41480    0.80872    0.61087    1.000
    N2716    N        0.44580    0.85103    0.57417    1.000
    Si2717   Si       0.44238    0.78338    0.53344    1.000
    Si2718   Si       0.40695    0.84981    0.59462    1.000
    Si2719   Si       0.45444    0.85043    0.50287    1.000
    N2720    N        0.40847    0.84895    0.50387    1.000
    N2721    N        0.40281    0.79290    0.54856    1.000
    Si2722   Si       0.45699    0.81865    0.60099    1.000
    Si2723   Si       0.42932    0.98685    0.55424    1.000
    Si2724   Si       0.45469    0.94095    0.61155    1.000
    Si2725   Si       0.45724    0.92332    0.71059    1.000
    N2726    N        0.40463    0.88019    0.62414    1.000
    Si2727   Si       0.42276    0.86291    0.70796    1.000
    N2728    N        0.42541    0.82317    0.68918    1.000
    Si2729   Si       0.44242    0.88039    0.64402    1.000
    N2730    N        0.41156    0.94719    0.61754    1.000
    N2731    N        0.42013    0.92549    0.74061    1.000
    N2732    N        0.44506    0.89114    0.68460    1.000
    N2733    N        0.41853    0.00450    0.65925    1.000
    Si2734   Si       0.42518    0.96964    0.74036    1.000
    N2735    N        0.44897    0.96523    0.70324    1.000
    N2736    N        0.39979    0.95916    0.53915    1.000
    Si2737   Si       0.39980    0.98766    0.62460    1.000
    N2738    N        0.42528    0.77568    0.79318    1.000
    N2739    N        0.42374    0.79281    0.85971    1.000
    N2740    N        0.44167    0.86245    0.74814    1.000
    Si2741   Si       0.45048    0.99525    0.81180    1.000
    Si2742   Si       0.42325    0.89340    0.77122    1.000
    N2743    N        0.41998    0.90759    0.85678    1.000
    N2744    N        0.45290    0.98895    0.76889    1.000
    N2745    N        0.40664    0.99541    0.81467    1.000
    Si2746   Si       0.45894    0.89606    0.84127    1.000
    N2747    N        0.45827    0.90237    0.79770    1.000
    N2748    N        0.43366    0.86186    0.93946    1.000
    Si2749   Si       0.41077    0.77071    0.96295    1.000
    N2750    N        0.45060    0.78538    0.95992    1.000
    Si2751   Si       0.45634    0.81575    0.99179    1.000
    N2752    N        0.45246    0.93243    0.91204    1.000
    Si2753   Si       0.45513    0.96331    0.94426    1.000
    N2754    N        0.40099    0.91708    0.98611    1.000
    N2755    N        0.42173    0.98906    0.94894    1.000
    Si2756   Si       0.40473    0.00500    0.90901    1.000
    Si2757   Si       0.41191    0.92826    0.89459    1.000
    Si2758   Si       0.40126    0.88446    0.95494    1.000
    Si2759   Si       0.41771    0.76021    0.88752    1.000
    N2760    N        0.47538    0.05443    0.04978    1.000
    Si2761   Si       0.50552    0.02376    0.04539    1.000
    N2762    N        0.47147    0.13219    0.09181    1.000
    Si2763   Si       0.48560    0.14053    0.05192    1.000
    N2764    N        0.49566    0.18140    0.03687    1.000
    Si2765   Si       0.47140    0.20621    0.00811    1.000
    Si2766   Si       0.47925    0.25383    0.07448    1.000
    N2767    N        0.46182    0.24180    0.03329    1.000
    Si2768   Si       0.46906    0.10124    0.12286    1.000
    Si2769   Si       0.48214    0.04523    0.16004    1.000
    N2770    N        0.49956    0.07382    0.13330    1.000
    N2771    N        0.46156    0.12455    0.15872    1.000
    Si2772   Si       0.47678    0.15429    0.22670    1.000
    N2773    N        0.46097    0.18499    0.19916    1.000
    N2774    N        0.51109    0.17298    0.15138    1.000
    N2775    N        0.47973    0.25420    0.20650    1.000
    Si2776   Si       0.46900    0.16584    0.15904    1.000
    Si2777   Si       0.51710    0.24953    0.22655    1.000
    N2778    N        0.51664    0.04046    0.18649    1.000
    N2779    N        0.48808    0.03527    0.33824    1.000
    Si2780   Si       0.47814    0.07654    0.33168    1.000
    N2781    N        0.49935    0.09079    0.29629    1.000
    N2782    N        0.48375    0.03286    0.26391    1.000
    Si2783   Si       0.51556    0.06017    0.27116    1.000
    Si2784   Si       0.50635    0.13325    0.29372    1.000
    N2785    N        0.48153    0.09440    0.37378    1.000
    Si2786   Si       0.46965    0.13668    0.36093    1.000
    Si2787   Si       0.49706    0.23821    0.30942    1.000
    N2788    N        0.50073    0.14915    0.33257    1.000
    N2789    N        0.47996    0.15760    0.27075    1.000
    N2790    N        0.46161    0.21289    0.31561    1.000
    N2791    N        0.49307    0.10878    0.47597    1.000
    N2792    N        0.49297    0.04873    0.41601    1.000
    Si2793   Si       0.48553    0.00833    0.43417    1.000
    N2794    N        0.48785    0.18936    0.45034    1.000
    Si2795   Si       0.49019    0.19201    0.40713    1.000
    N2796    N        0.47590    0.23502    0.39681    1.000
    N2797    N        0.46177    0.16219    0.39424    1.000
    N2798    N        0.47568    0.12340    0.54767    1.000
    N2799    N        0.50280    0.05779    0.52646    1.000
    Si2800   Si       0.48106    0.09464    0.51563    1.000
    Si2801   Si       0.48891    0.02017    0.51663    1.000
    Si2802   Si       0.49916    0.02958    0.60980    1.000
    N2803    N        0.46550    0.05955    0.60853    1.000
    N2804    N        0.51298    0.11825    0.61972    1.000
    Si2805   Si       0.47783    0.20774    0.53164    1.000
    N2806    N        0.50689    0.17701    0.52099    1.000
    N2807    N        0.49593    0.24933    0.52606    1.000
    Si2808   Si       0.48174    0.21514    0.60788    1.000
    N2809    N        0.46420    0.20053    0.57175    1.000
    Si2810   Si       0.51519    0.14548    0.55174    1.000
    N2811    N        0.51465    0.24368    0.60002    1.000
    Si2812   Si       0.47656    0.09620    0.62895    1.000
    N2813    N        0.49053    0.02025    0.65069    1.000
    Si2814   Si       0.49374    0.05017    0.68202    1.000
    N2815    N        0.48009    0.09084    0.67264    1.000
    Si2816   Si       0.46629    0.12710    0.69535    1.000
    N2817    N        0.46944    0.02438    0.70785    1.000
    N2818    N        0.46155    0.20770    0.70030    1.000
    N2819    N        0.49751    0.18678    0.63631    1.000
    Si2820   Si       0.46368    0.24637    0.71851    1.000
    N2821    N        0.50152    0.15206    0.69786    1.000
    Si2822   Si       0.49703    0.19154    0.67916    1.000
    N2823    N        0.48931    0.04951    0.76765    1.000
    Si2824   Si       0.47741    0.11638    0.84330    1.000
    Si2825   Si       0.49663    0.02341    0.84535    1.000
    N2826    N        0.46313    0.10283    0.80435    1.000
    Si2827   Si       0.46834    0.13188    0.77225    1.000
    Si2828   Si       0.48226    0.23318    0.93206    1.000
    Si2829   Si       0.47808    0.21033    0.78464    1.000
    N2830    N        0.47016    0.22103    0.82596    1.000
    Si2831   Si       0.46778    0.24854    0.85880    1.000
    N2832    N        0.45829    0.17057    0.78872    1.000
    N2833    N        0.50547    0.03496    0.88569    1.000
    Si2834   Si       0.47642    0.02658    0.91568    1.000
    N2835    N        0.47334    0.05673    0.94621    1.000
    N2836    N        0.49881    0.09914    0.98347    1.000
    Si2837   Si       0.51095    0.05748    0.96906    1.000
    Si2838   Si       0.46039    0.09801    0.95833    1.000
    N2839    N        0.49974    0.23006    0.88868    1.000
    N2840    N        0.48288    0.23209    0.97585    1.000
    N2841    N        0.51328    0.13814    0.76571    1.000
    Si2842   Si       0.47894    0.01329    0.74690    1.000
    N2843    N        0.48481    0.29279    0.09181    1.000
    Si2844   Si       0.50648    0.36467    0.06276    1.000
    N2845    N        0.46979    0.34545    0.04540    1.000
    Si2846   Si       0.46234    0.34440    0.00191    1.000
    Si2847   Si       0.51850    0.30859    0.11896    1.000
    Si2848   Si       0.50142    0.48342    0.08687    1.000
    Si2849   Si       0.49248    0.47488    0.00583    1.000
    N2850    N        0.50095    0.46839    0.04718    1.000
    N2851    N        0.49525    0.40605    0.07097    1.000
    N2852    N        0.47643    0.45852    0.11253    1.000
    Si2853   Si       0.45932    0.42550    0.08669    1.000
    Si2854   Si       0.49084    0.29518    0.19351    1.000
    N2855    N        0.47992    0.33532    0.20631    1.000
    Si2856   Si       0.49290    0.35761    0.24163    1.000
    N2857    N        0.48346    0.43317    0.17247    1.000
    Si2858   Si       0.51447    0.44608    0.13926    1.000
    Si2859   Si       0.49214    0.50634    0.17298    1.000
    N2860    N        0.47780    0.39787    0.23411    1.000
    N2861    N        0.50901    0.45721    0.24584    1.000
    Si2862   Si       0.50237    0.42716    0.21217    1.000
    N2863    N        0.51972    0.29218    0.15905    1.000
    N2864    N        0.49700    0.34676    0.34190    1.000
    N2865    N        0.49302    0.27911    0.31357    1.000
    N2866    N        0.48869    0.32672    0.27441    1.000
    Si2867   Si       0.47670    0.31830    0.31634    1.000
    Si2868   Si       0.51880    0.29111    0.27675    1.000
    Si2869   Si       0.49352    0.38958    0.33494    1.000
    N2870    N        0.50248    0.39473    0.29272    1.000
    Si2871   Si       0.49138    0.47214    0.28219    1.000
    Si2872   Si       0.46547    0.40949    0.27519    1.000
    Si2873   Si       0.46013    0.50283    0.45605    1.000
    N2874    N        0.48772    0.50720    0.37410    1.000
    N2875    N        0.46261    0.44594    0.29726    1.000
    Si2876   Si       0.48912    0.31328    0.44182    1.000
    Si2877   Si       0.50559    0.26409    0.40714    1.000
    N2878    N        0.50050    0.30833    0.40028    1.000
    N2879    N        0.50270    0.27113    0.45084    1.000
    N2880    N        0.51702    0.34199    0.45908    1.000
    Si2881   Si       0.49564    0.38091    0.45783    1.000
    N2882    N        0.47890    0.46722    0.47081    1.000
    Si2883   Si       0.51824    0.44978    0.46057    1.000
    N2884    N        0.48235    0.39945    0.42044    1.000
    N2885    N        0.46797    0.50940    0.27146    1.000
    N2886    N        0.48640    0.29382    0.57396    1.000
    N2887    N        0.50663    0.35509    0.58717    1.000
    Si2888   Si       0.46934    0.28305    0.53459    1.000
    Si2889   Si       0.47088    0.33124    0.59390    1.000
    N2890    N        0.47958    0.31508    0.50580    1.000
    Si2891   Si       0.48950    0.27750    0.61725    1.000
    Si2892   Si       0.49805    0.39026    0.61097    1.000
    Si2893   Si       0.48364    0.46409    0.56857    1.000
    N2894    N        0.48142    0.43173    0.59984    1.000
    N2895    N        0.50213    0.45406    0.53118    1.000
    N2896    N        0.50981    0.49369    0.58728    1.000
    Si2897   Si       0.46377    0.46814    0.51168    1.000
    Si2898   Si       0.48641    0.29967    0.68394    1.000
    N2899    N        0.49264    0.34374    0.68862    1.000
    N2900    N        0.50079    0.27376    0.71900    1.000
    N2901    N        0.51600    0.29053    0.65064    1.000
    N2902    N        0.49808    0.38347    0.74509    1.000
    Si2903   Si       0.47349    0.41633    0.73212    1.000
    N2904    N        0.49586    0.47291    0.66261    1.000
    N2905    N        0.49908    0.45176    0.72874    1.000
    Si2906   Si       0.51394    0.44658    0.63033    1.000
    Si2907   Si       0.52007    0.35597    0.71804    1.000
    Si2908   Si       0.46010    0.50038    0.66078    1.000
    Si2909   Si       0.50424    0.29351    0.75782    1.000
    Si2910   Si       0.49354    0.35317    0.77914    1.000
    N2911    N        0.46884    0.31638    0.76864    1.000
    Si2912   Si       0.47186    0.37989    0.84487    1.000
    N2913    N        0.51226    0.37753    0.86342    1.000
    N2914    N        0.46738    0.37643    0.80183    1.000
    N2915    N        0.47969    0.28984    0.87136    1.000
    Si2916   Si       0.49702    0.47402    0.76505    1.000
    N2917    N        0.50238    0.44633    0.79774    1.000
    Si2918   Si       0.47732    0.44856    0.83204    1.000
    N2919    N        0.49904    0.45878    0.86709    1.000
    Si2920   Si       0.47580    0.43342    0.89343    1.000
    Si2921   Si       0.46361    0.32411    0.89240    1.000
    N2922    N        0.49534    0.33898    0.91834    1.000
    N2923    N        0.49006    0.37259    0.98413    1.000
    N2924    N        0.47848    0.30704    0.98576    1.000
    Si2925   Si       0.50628    0.31140    0.95142    1.000
    N2926    N        0.50840    0.27216    0.93201    1.000
    Si2927   Si       0.51581    0.27166    0.89053    1.000
    Si2928   Si       0.46326    0.26750    0.99552    1.000
    Si2929   Si       0.51942    0.37442    0.90575    1.000
    N2930    N        0.49497    0.40768    0.92313    1.000
    Si2931   Si       0.48500    0.41079    0.96545    1.000
    N2932    N        0.50881    0.44426    0.98138    1.000
    N2933    N        0.48869    0.58346    0.08320    1.000
    Si2934   Si       0.49228    0.62379    0.07485    1.000
    Si2935   Si       0.47357    0.55891    0.11493    1.000
    N2936    N        0.51458    0.52250    0.09312    1.000
    N2937    N        0.49741    0.65124    0.10883    1.000
    Si2938   Si       0.49266    0.68666    0.03103    1.000
    N2939    N        0.47194    0.64840    0.04529    1.000
    N2940    N        0.46804    0.72500    0.03106    1.000
    Si2941   Si       0.46685    0.74519    0.09926    1.000
    Si2942   Si       0.49370    0.75954    0.03693    1.000
    Si2943   Si       0.50682    0.60057    0.23087    1.000
    N2944    N        0.49902    0.54427    0.14745    1.000
    N2945    N        0.49915    0.52888    0.20875    1.000
    N2946    N        0.49628    0.59733    0.18911    1.000
    Si2947   Si       0.52093    0.56065    0.18540    1.000
    N2948    N        0.49987    0.63991    0.24503    1.000
    Si2949   Si       0.48345    0.73636    0.16627    1.000
    N2950    N        0.51479    0.75674    0.19065    1.000
    N2951    N        0.50579    0.70137    0.15345    1.000
    Si2952   Si       0.47551    0.67564    0.13625    1.000
    Si2953   Si       0.49546    0.54540    0.35561    1.000
    N2954    N        0.50225    0.61103    0.31700    1.000
    Si2955   Si       0.47447    0.58549    0.29848    1.000
    N2956    N        0.49744    0.57391    0.26158    1.000
    Si2957   Si       0.49944    0.53230    0.25264    1.000
    N2958    N        0.46267    0.55875    0.32954    1.000
    N2959    N        0.49280    0.63705    0.41303    1.000
    Si2960   Si       0.49174    0.65111    0.32649    1.000
    Si2961   Si       0.47687    0.71051    0.28002    1.000
    N2962    N        0.49500    0.73081    0.31679    1.000
    N2963    N        0.50943    0.70735    0.25072    1.000
    N2964    N        0.46360    0.67022    0.29646    1.000
    N2965    N        0.45927    0.65319    0.35486    1.000
    N2966    N        0.48913    0.52988    0.47727    1.000
    Si2967   Si       0.47650    0.56812    0.48988    1.000
    N2968    N        0.46499    0.59003    0.45529    1.000
    Si2969   Si       0.49401    0.59493    0.42362    1.000
    N2970    N        0.50276    0.56888    0.39039    1.000
    N2971    N        0.47583    0.73568    0.47274    1.000
    N2972    N        0.47567    0.55265    0.57176    1.000
    N2973    N        0.50501    0.58361    0.51975    1.000
    N2974    N        0.50251    0.61871    0.58326    1.000
    Si2975   Si       0.48379    0.59300    0.55552    1.000
    Si2976   Si       0.49069    0.52747    0.60655    1.000
    N2977    N        0.49083    0.72756    0.59941    1.000
    Si2978   Si       0.50649    0.70428    0.53054    1.000
    Si2979   Si       0.48084    0.64313    0.61139    1.000
    N2980    N        0.50788    0.74811    0.53743    1.000
    N2981    N        0.46657    0.68782    0.52697    1.000
    N2982    N        0.46929    0.53814    0.68097    1.000
    Si2983   Si       0.51157    0.54827    0.67739    1.000
    N2984    N        0.46059    0.62118    0.64592    1.000
    Si2985   Si       0.47481    0.74182    0.67741    1.000
    N2986    N        0.49971    0.65276    0.69822    1.000
    Si2987   Si       0.50424    0.65747    0.74209    1.000
    N2988    N        0.51286    0.66784    0.62675    1.000
    N2989    N        0.46525    0.73142    0.71923    1.000
    Si2990   Si       0.46130    0.63533    0.68847    1.000
    Si2991   Si       0.50160    0.72857    0.74647    1.000
    N2992    N        0.50879    0.62138    0.76390    1.000
    N2993    N        0.48066    0.52658    0.84891    1.000
    Si2994   Si       0.47551    0.59703    0.75347    1.000
    N2995    N        0.48671    0.55407    0.75011    1.000
    Si2996   Si       0.48138    0.69260    0.79869    1.000
    N2997    N        0.48424    0.73423    0.78681    1.000
    N2998    N        0.46793    0.67386    0.76056    1.000
    Si2999   Si       0.51304    0.66898    0.86210    1.000
    N3000    N        0.48100    0.63948    0.87046    1.000
    N3001    N        0.51642    0.67625    0.82007    1.000
    N3002    N        0.51629    0.75473    0.93877    1.000
    Si3003   Si       0.48560    0.60747    0.90075    1.000
    N3004    N        0.48399    0.52273    0.91789    1.000
    Si3005   Si       0.49698    0.53586    0.95698    1.000
    Si3006   Si       0.50406    0.53692    0.88293    1.000
    N3007    N        0.50329    0.62877    0.93882    1.000
    N3008    N        0.51429    0.57832    0.88692    1.000
    N3009    N        0.50993    0.51081    0.98974    1.000
    Si3010   Si       0.48118    0.65500    0.96497    1.000
    N3011    N        0.50191    0.70175    0.88687    1.000
    Si3012   Si       0.46084    0.70336    0.90239    1.000
    N3013    N        0.50797    0.67616    0.99259    1.000
    N3014    N        0.47210    0.79718    0.03149    1.000
    Si3015   Si       0.48926    0.83287    0.04774    1.000
    N3016    N        0.50277    0.82804    0.08894    1.000
    N3017    N        0.50507    0.75700    0.08007    1.000
    N3018    N        0.50886    0.91701    0.02861    1.000
    Si3019   Si       0.49962    0.95345    0.00701    1.000
    N3020    N        0.48866    0.89647    0.09247    1.000
    Si3021   Si       0.47557    0.90153    0.05182    1.000
    N3022    N        0.48921    0.98661    0.03318    1.000
    Si3023   Si       0.50002    0.79939    0.12318    1.000
    Si3024   Si       0.49974    0.86082    0.16809    1.000
    N3025    N        0.48350    0.82420    0.15585    1.000
    N3026    N        0.47110    0.76503    0.13820    1.000
    Si3027   Si       0.49248    0.85257    0.24274    1.000
    Si3028   Si       0.48707    0.99606    0.24034    1.000
    N3029    N        0.47746    0.89846    0.16634    1.000
    Si3030   Si       0.48124    0.92138    0.12935    1.000
    N3031    N        0.46946    0.89105    0.24521    1.000
    N3032    N        0.48270    0.00745    0.13626    1.000
    N3033    N        0.51712    0.86274    0.20810    1.000
    N3034    N        0.51579    0.94866    0.12797    1.000
    N3035    N        0.45932    0.86180    0.04414    1.000
    N3036    N        0.48022    0.80281    0.32086    1.000
    Si3037   Si       0.49962    0.80555    0.28240    1.000
    Si3038   Si       0.48097    0.83471    0.35076    1.000
    Si3039   Si       0.47233    0.76323    0.33869    1.000
    N3040    N        0.47223    0.81539    0.24993    1.000
    N3041    N        0.51938    0.85460    0.34857    1.000
    Si3042   Si       0.49815    0.89453    0.34297    1.000
    Si3043   Si       0.49557    0.92037    0.26679    1.000
    N3044    N        0.47731    0.95860    0.26128    1.000
    N3045    N        0.51190    0.90549    0.30450    1.000
    N3046    N        0.46528    0.97737    0.36827    1.000
    Si3047   Si       0.47342    0.79129    0.40543    1.000
    N3048    N        0.49569    0.76798    0.37778    1.000
    N3049    N        0.47407    0.86606    0.46632    1.000
    N3050    N        0.49698    0.80625    0.44086    1.000
    Si3051   Si       0.48648    0.85050    0.42899    1.000
    Si3052   Si       0.46909    0.77873    0.46779    1.000
    N3053    N        0.46453    0.83256    0.39284    1.000
    Si3054   Si       0.48115    0.90342    0.48773    1.000
    N3055    N        0.51491    0.98399    0.41293    1.000
    Si3056   Si       0.50681    0.96521    0.37482    1.000
    N3057    N        0.50723    0.92266    0.37365    1.000
    N3058    N        0.49860    0.00678    0.47512    1.000
    N3059    N        0.51730    0.92852    0.48381    1.000
    Si3060   Si       0.50174    0.76291    0.57787    1.000
    N3061    N        0.51560    0.86089    0.58156    1.000
    N3062    N        0.46484    0.78617    0.57198    1.000
    N3063    N        0.45843    0.80604    0.50176    1.000
    N3064    N        0.47177    0.88400    0.52539    1.000
    Si3065   Si       0.47604    0.88318    0.56933    1.000
    Si3066   Si       0.50391    0.96336    0.56605    1.000
    N3067    N        0.46813    0.89959    0.61017    1.000
    N3068    N        0.51171    0.98299    0.52857    1.000
    N3069    N        0.51458    0.92034    0.56571    1.000
    N3070    N        0.46782    0.84387    0.63746    1.000
    Si3071   Si       0.46616    0.81964    0.67491    1.000
    N3072    N        0.49235    0.83999    0.70419    1.000
    N3073    N        0.48533    0.78224    0.66373    1.000
    Si3074   Si       0.50275    0.86909    0.62500    1.000
    N3075    N        0.46085    0.96219    0.57342    1.000
    Si3076   Si       0.51739    0.94195    0.65569    1.000
    N3077    N        0.49486    0.92578    0.73667    1.000
    N3078    N        0.47675    0.95544    0.64485    1.000
    Si3079   Si       0.46158    0.99277    0.67231    1.000
    N3080    N        0.51147    0.89773    0.66030    1.000
    N3081    N        0.48508    0.79035    0.83034    1.000
    N3082    N        0.48774    0.79999    0.76481    1.000
    Si3083   Si       0.46729    0.77549    0.79470    1.000
    N3084    N        0.50914    0.86531    0.76567    1.000
    Si3085   Si       0.46205    0.81182    0.86187    1.000
    N3086    N        0.45845    0.85376    0.84879    1.000
    N3087    N        0.48631    0.98289    0.83102    1.000
    N3088    N        0.49167    0.91722    0.85528    1.000
    Si3089   Si       0.49556    0.90579    0.77548    1.000
    Si3090   Si       0.51316    0.94768    0.83186    1.000
    N3091    N        0.46545    0.94504    0.98259    1.000
    Si3092   Si       0.47164    0.84621    0.92967    1.000
    Si3093   Si       0.47743    0.77510    0.92830    1.000
    N3094    N        0.47709    0.81053    0.90421    1.000
    N3095    N        0.49840    0.87679    0.91459    1.000
    N3096    N        0.48564    0.83859    0.97037    1.000
    N3097    N        0.48851    0.99046    0.93505    1.000
    Si3098   Si       0.49153    0.91907    0.89964    1.000
    Si3099   Si       0.47845    0.84108    0.74759    1.000
    N3100    N        0.56050    0.10537    0.11116    1.000
    Si3101   Si       0.53289    0.11616    0.00382    1.000
    N3102    N        0.52552    0.12224    0.04629    1.000
    N3103    N        0.52295    0.03548    0.00519    1.000
    N3104    N        0.52983    0.01076    0.08281    1.000
    Si3105   Si       0.55528    0.13082    0.07663    1.000
    Si3106   Si       0.57344    0.01095    0.07252    1.000
    Si3107   Si       0.53097    0.19739    0.05466    1.000
    N3108    N        0.56554    0.20046    0.02772    1.000
    N3109    N        0.54431    0.17118    0.08766    1.000
    Si3110   Si       0.55584    0.25028    0.09147    1.000
    N3111    N        0.51806    0.23503    0.07392    1.000
    Si3112   Si       0.57025    0.09409    0.21277    1.000
    Si3113   Si       0.54390    0.07932    0.14263    1.000
    N3114    N        0.54755    0.10323    0.17751    1.000
    N3115    N        0.57409    0.04827    0.13602    1.000
    Si3116   Si       0.55334    0.15634    0.24424    1.000
    Si3117   Si       0.54748    0.00837    0.19381    1.000
    N3118    N        0.52121    0.15297    0.21492    1.000
    N3119    N        0.57175    0.16830    0.15631    1.000
    Si3120   Si       0.54500    0.18686    0.12689    1.000
    N3121    N        0.55053    0.23000    0.13042    1.000
    N3122    N        0.54534    0.23659    0.19509    1.000
    Si3123   Si       0.53986    0.14721    0.17546    1.000
    N3124    N        0.54137    0.03502    0.29641    1.000
    Si3125   Si       0.52956    0.02455    0.33673    1.000
    N3126    N        0.54423    0.05846    0.36178    1.000
    Si3127   Si       0.57527    0.05510    0.27743    1.000
    N3128    N        0.56381    0.19775    0.25243    1.000
    N3129    N        0.57174    0.14641    0.34372    1.000
    N3130    N        0.54810    0.13935    0.28368    1.000
    Si3131   Si       0.55513    0.22189    0.28850    1.000
    N3132    N        0.53329    0.21376    0.32812    1.000
    Si3133   Si       0.53556    0.16890    0.34514    1.000
    N3134    N        0.52154    0.24569    0.27271    1.000
    Si3135   Si       0.55114    0.22051    0.37065    1.000
    N3136    N        0.55869    0.08910    0.48890    1.000
    N3137    N        0.54685    0.09298    0.42133    1.000
    Si3138   Si       0.53360    0.10932    0.45970    1.000
    Si3139   Si       0.51953    0.07384    0.39254    1.000
    Si3140   Si       0.52056    0.25782    0.48860    1.000
    N3141    N        0.54215    0.21965    0.48411    1.000
    N3142    N        0.52781    0.18584    0.38450    1.000
    N3143    N        0.54520    0.15204    0.46198    1.000
    Si3144   Si       0.51982    0.18340    0.47996    1.000
    N3145    N        0.54992    0.07262    0.24600    1.000
    Si3146   Si       0.54399    0.07548    0.52904    1.000
    N3147    N        0.53792    0.10861    0.55618    1.000
    Si3148   Si       0.54190    0.09562    0.59771    1.000
    N3149    N        0.53102    0.05608    0.60414    1.000
    N3150    N        0.57228    0.04633    0.54037    1.000
    N3151    N        0.53554    0.16813    0.57933    1.000
    N3152    N        0.55764    0.24240    0.55345    1.000
    Si3153   Si       0.56429    0.19760    0.56363    1.000
    Si3154   Si       0.52755    0.15904    0.62167    1.000
    Si3155   Si       0.54046    0.25814    0.70450    1.000
    N3156    N        0.55243    0.10240    0.71256    1.000
    N3157    N        0.53324    0.03781    0.69636    1.000
    Si3158   Si       0.55943    0.06182    0.71744    1.000
    N3159    N        0.57302    0.01565    0.64345    1.000
    Si3160   Si       0.53196    0.13799    0.72511    1.000
    N3161    N        0.56552    0.16667    0.72332    1.000
    N3162    N        0.56238    0.24432    0.74133    1.000
    N3163    N        0.56200    0.16798    0.64868    1.000
    N3164    N        0.53007    0.21841    0.68627    1.000
    Si3165   Si       0.56548    0.19226    0.68601    1.000
    Si3166   Si       0.54535    0.07666    0.83838    1.000
    Si3167   Si       0.52834    0.03016    0.77878    1.000
    N3168    N        0.56169    0.05053    0.75980    1.000
    N3169    N        0.52411    0.04449    0.81938    1.000
    N3170    N        0.52011    0.11070    0.84894    1.000
    N3171    N        0.56966    0.05598    0.87095    1.000
    Si3172   Si       0.54716    0.23894    0.78400    1.000
    Si3173   Si       0.53300    0.16632    0.79729    1.000
    N3174    N        0.52933    0.17578    0.84027    1.000
    Si3175   Si       0.54138    0.14409    0.86542    1.000
    N3176    N        0.52065    0.20499    0.78054    1.000
    N3177    N        0.53361    0.16332    0.90264    1.000
    N3178    N        0.54242    0.06180    0.93836    1.000
    Si3179   Si       0.54519    0.03777    0.90150    1.000
    N3180    N        0.56801    0.08891    0.99741    1.000
    N3181    N        0.57259    0.21701    0.87970    1.000
    N3182    N        0.54551    0.15143    0.98444    1.000
    Si3183   Si       0.53110    0.20027    0.87731    1.000
    Si3184   Si       0.55378    0.15583    0.94003    1.000
    Si3185   Si       0.57988    0.25015    0.85094    1.000
    N3186    N        0.53839    0.36115    0.03297    1.000
    N3187    N        0.55472    0.29112    0.10160    1.000
    Si3188   Si       0.54930    0.37637    0.11639    1.000
    N3189    N        0.51971    0.34805    0.10002    1.000
    Si3190   Si       0.57740    0.36940    0.04853    1.000
    N3191    N        0.56101    0.39604    0.08019    1.000
    N3192    N        0.53765    0.45836    0.09848    1.000
    N3193    N        0.55701    0.43850    0.02831    1.000
    Si3194   Si       0.52950    0.43248    0.06219    1.000
    Si3195   Si       0.55403    0.26173    0.16076    1.000
    Si3196   Si       0.55523    0.32474    0.24064    1.000
    N3197    N        0.53717    0.36327    0.24412    1.000
    N3198    N        0.52564    0.29326    0.22984    1.000
    N3199    N        0.56886    0.48786    0.21697    1.000
    Si3200   Si       0.57226    0.41801    0.17556    1.000
    N3201    N        0.52525    0.48575    0.15644    1.000
    N3202    N        0.54100    0.40888    0.14423    1.000
    Si3203   Si       0.55269    0.45516    0.24074    1.000
    Si3204   Si       0.57126    0.49659    0.17338    1.000
    N3205    N        0.54464    0.42507    0.20710    1.000
    N3206    N        0.55587    0.31985    0.35414    1.000
    N3207    N        0.55744    0.30941    0.28312    1.000
    N3208    N        0.56682    0.37611    0.30417    1.000
    Si3209   Si       0.57278    0.33457    0.31535    1.000
    Si3210   Si       0.54177    0.39315    0.27375    1.000
    Si3211   Si       0.54285    0.45001    0.34161    1.000
    N3212    N        0.57011    0.42897    0.27038    1.000
    N3213    N        0.52615    0.47545    0.30830    1.000
    N3214    N        0.54872    0.48294    0.36815    1.000
    N3215    N        0.53791    0.36988    0.40288    1.000
    Si3216   Si       0.55683    0.34817    0.43565    1.000
    Si3217   Si       0.57353    0.29094    0.38233    1.000
    N3218    N        0.57774    0.36067    0.47277    1.000
    N3219    N        0.54596    0.25801    0.38963    1.000
    N3220    N        0.52329    0.40985    0.47484    1.000
    N3221    N        0.54698    0.47424    0.48271    1.000
    N3222    N        0.52401    0.44851    0.41820    1.000
    Si3223   Si       0.51887    0.48571    0.39720    1.000
    Si3224   Si       0.51940    0.41023    0.39858    1.000
    N3225    N        0.51650    0.41885    0.35665    1.000
    Si3226   Si       0.52197    0.33771    0.37567    1.000
    N3227    N        0.55038    0.30124    0.56415    1.000
    Si3228   Si       0.54222    0.34421    0.56565    1.000
    N3229    N        0.53219    0.35765    0.52618    1.000
    N3230    N        0.54614    0.29018    0.50130    1.000
    N3231    N        0.57774    0.37028    0.57638    1.000
    Si3232   Si       0.52123    0.26505    0.56097    1.000
    Si3233   Si       0.52092    0.32521    0.50069    1.000
    N3234    N        0.52456    0.40454    0.64173    1.000
    Si3235   Si       0.54407    0.45342    0.52218    1.000
    Si3236   Si       0.55176    0.49127    0.58819    1.000
    N3237    N        0.56607    0.47486    0.55133    1.000
    N3238    N        0.56944    0.41574    0.52081    1.000
    Si3239   Si       0.52098    0.47537    0.69781    1.000
    N3240    N        0.55605    0.37294    0.70152    1.000
    N3241    N        0.56972    0.34439    0.64162    1.000
    Si3242   Si       0.55787    0.30312    0.65132    1.000
    N3243    N        0.56914    0.28853    0.69105    1.000
    N3244    N        0.55319    0.46616    0.62612    1.000
    Si3245   Si       0.55756    0.38391    0.65884    1.000
    N3246    N        0.56252    0.46055    0.70074    1.000
    Si3247   Si       0.55157    0.38399    0.49631    1.000
    Si3248   Si       0.54287    0.36692    0.83907    1.000
    N3249    N        0.54419    0.27517    0.85758    1.000
    Si3250   Si       0.55920    0.33301    0.77703    1.000
    N3251    N        0.52628    0.33950    0.80889    1.000
    Si3252   Si       0.53925    0.29898    0.82219    1.000
    N3253    N        0.52026    0.27269    0.79214    1.000
    N3254    N        0.52891    0.50075    0.76881    1.000
    N3255    N        0.55554    0.47640    0.82918    1.000
    Si3256   Si       0.54724    0.44277    0.80196    1.000
    N3257    N        0.55873    0.40300    0.81999    1.000
    Si3258   Si       0.53879    0.47285    0.86927    1.000
    N3259    N        0.54394    0.32813    0.96673    1.000
    Si3260   Si       0.53271    0.36448    0.98844    1.000
    N3261    N        0.56339    0.37144    0.91130    1.000
    Si3262   Si       0.55145    0.44105    0.98549    1.000
    N3263    N        0.55386    0.39867    0.97304    1.000
    N3264    N        0.56056    0.45025    0.89826    1.000
    N3265    N        0.57558    0.34096    0.85318    1.000
    N3266    N        0.57747    0.43845    0.77152    1.000
    N3267    N        0.52984    0.32509    0.74625    1.000
    Si3268   Si       0.55433    0.60392    0.03048    1.000
    N3269    N        0.55475    0.56776    0.10536    1.000
    N3270    N        0.53287    0.56461    0.03147    1.000
    N3271    N        0.53655    0.62610    0.06584    1.000
    Si3272   Si       0.52605    0.56104    0.07430    1.000
    Si3273   Si       0.54307    0.53703    0.00036    1.000
    Si3274   Si       0.53580    0.66344    0.09043    1.000
    Si3275   Si       0.55391    0.71986    0.03765    1.000
    N3276    N        0.52956    0.74960    0.01326    1.000
    N3277    N        0.52759    0.69077    0.05774    1.000
    Si3278   Si       0.54341    0.53208    0.12999    1.000
    N3279    N        0.55868    0.54396    0.17077    1.000
    N3280    N        0.54535    0.58099    0.21992    1.000
    N3281    N        0.57133    0.72639    0.15970    1.000
    Si3282   Si       0.53120    0.67156    0.24058    1.000
    Si3283   Si       0.54541    0.68979    0.16154    1.000
    N3284    N        0.55039    0.67189    0.20171    1.000
    Si3285   Si       0.52435    0.74616    0.23194    1.000
    N3286    N        0.55955    0.66810    0.12571    1.000
    N3287    N        0.56866    0.74690    0.23235    1.000
    N3288    N        0.57722    0.73921    0.07048    1.000
    N3289    N        0.57775    0.69302    0.01306    1.000
    N3290    N        0.57892    0.60361    0.15918    1.000
    Si3291   Si       0.58074    0.57717    0.19511    1.000
    Si3292   Si       0.54148    0.58877    0.32025    1.000
    N3293    N        0.54177    0.52595    0.26669    1.000
    N3294    N        0.56566    0.59507    0.28553    1.000
    N3295    N        0.53008    0.54672    0.32965    1.000
    N3296    N        0.56517    0.60803    0.35331    1.000
    Si3297   Si       0.54746    0.51369    0.30703    1.000
    Si3298   Si       0.56177    0.56268    0.25598    1.000
    Si3299   Si       0.53672    0.71602    0.32598    1.000
    N3300    N        0.55537    0.73210    0.36061    1.000
    N3301    N        0.52930    0.67269    0.33050    1.000
    N3302    N        0.56851    0.72209    0.29595    1.000
    N3303    N        0.56975    0.66233    0.26046    1.000
    Si3304   Si       0.56205    0.65192    0.34809    1.000
    Si3305   Si       0.53867    0.55201    0.41136    1.000
    N3306    N        0.53481    0.58396    0.44089    1.000
    Si3307   Si       0.53091    0.51375    0.47152    1.000
    N3308    N        0.55704    0.61977    0.49122    1.000
    N3309    N        0.53027    0.51319    0.42809    1.000
    Si3310   Si       0.57195    0.60387    0.45502    1.000
    N3311    N        0.57407    0.54710    0.38732    1.000
    Si3312   Si       0.56494    0.69728    0.41636    1.000
    N3313    N        0.57706    0.66845    0.44770    1.000
    Si3314   Si       0.53364    0.75435    0.39224    1.000
    N3315    N        0.57365    0.66909    0.38480    1.000
    Si3316   Si       0.56092    0.66398    0.48896    1.000
    N3317    N        0.52855    0.72112    0.42098    1.000
    N3318    N        0.52983    0.69328    0.49352    1.000
    Si3319   Si       0.51648    0.72311    0.46272    1.000
    N3320    N        0.55500    0.54421    0.49517    1.000
    Si3321   Si       0.54752    0.58435    0.51529    1.000
    N3322    N        0.56110    0.59795    0.55615    1.000
    N3323    N        0.56876    0.53022    0.58863    1.000
    Si3324   Si       0.54546    0.62072    0.59135    1.000
    N3325    N        0.51126    0.71805    0.67526    1.000
    N3326    N        0.53584    0.69142    0.56038    1.000
    Si3327   Si       0.52466    0.70096    0.60293    1.000
    N3328    N        0.55662    0.72621    0.61555    1.000
    Si3329   Si       0.57549    0.70250    0.54830    1.000
    Si3330   Si       0.51998    0.67568    0.66771    1.000
    Si3331   Si       0.55959    0.55866    0.62356    1.000
    N3332    N        0.55244    0.60162    0.62907    1.000
    N3333    N        0.52623    0.51789    0.70702    1.000
    N3334    N        0.53506    0.58230    0.68917    1.000
    Si3335   Si       0.55648    0.61674    0.67289    1.000
    Si3336   Si       0.56888    0.57421    0.71771    1.000
    N3337    N        0.52189    0.54104    0.63673    1.000
    N3338    N        0.52752    0.75663    0.72807    1.000
    Si3339   Si       0.54393    0.74323    0.69028    1.000
    N3340    N        0.56050    0.66044    0.67495    1.000
    N3341    N        0.55008    0.58756    0.82464    1.000
    Si3342   Si       0.54475    0.60288    0.78494    1.000
    N3343    N        0.55262    0.57052    0.75769    1.000
    Si3344   Si       0.54706    0.60205    0.86659    1.000
    Si3345   Si       0.52567    0.53583    0.74765    1.000
    N3346    N        0.56862    0.63899    0.78063    1.000
    Si3347   Si       0.55150    0.67688    0.79005    1.000
    N3348    N        0.52600    0.69278    0.75438    1.000
    N3349    N        0.53132    0.56269    0.96364    1.000
    Si3350   Si       0.53860    0.60586    0.95760    1.000
    N3351    N        0.57219    0.61368    0.93238    1.000
    N3352    N        0.54263    0.51398    0.88235    1.000
    N3353    N        0.54856    0.62772    0.99386    1.000
    Si3354   Si       0.55053    0.67120    0.98504    1.000
    N3355    N        0.54472    0.64282    0.87720    1.000
    N3356    N        0.56673    0.67986    0.94726    1.000
    N3357    N        0.57238    0.72735    0.90142    1.000
    Si3358   Si       0.52871    0.73418    0.90208    1.000
    Si3359   Si       0.57088    0.65154    0.91234    1.000
    Si3360   Si       0.54908    0.77010    0.08875    1.000
    N3361    N        0.52537    0.85286    0.02651    1.000
    Si3362   Si       0.51946    0.86731    0.09934    1.000
    N3363    N        0.57321    0.80306    0.07671    1.000
    N3364    N        0.55367    0.88574    0.07864    1.000
    Si3365   Si       0.54230    0.89282    0.03785    1.000
    Si3366   Si       0.55448    0.00255    0.00307    1.000
    N3367    N        0.53911    0.78066    0.13067    1.000
    N3368    N        0.53053    0.86549    0.14041    1.000
    Si3369   Si       0.55204    0.76448    0.16957    1.000
    Si3370   Si       0.57321    0.87273    0.14728    1.000
    N3371    N        0.52674    0.98627    0.22471    1.000
    Si3372   Si       0.55311    0.88742    0.21458    1.000
    N3373    N        0.55045    0.92663    0.18953    1.000
    N3374    N        0.55489    0.98758    0.15547    1.000
    Si3375   Si       0.54713    0.94955    0.22758    1.000
    Si3376   Si       0.52074    0.99188    0.12261    1.000
    Si3377   Si       0.55353    0.94322    0.14991    1.000
    N3378    N        0.57668    0.98558    0.03762    1.000
    Si3379   Si       0.56226    0.85663    0.34846    1.000
    N3380    N        0.52296    0.77159    0.26770    1.000
    Si3381   Si       0.56454    0.76017    0.27311    1.000
    N3382    N        0.52072    0.84427    0.27542    1.000
    N3383    N        0.58037    0.81903    0.35802    1.000
    N3384    N        0.57685    0.87353    0.31103    1.000
    Si3385   Si       0.54329    0.88011    0.28138    1.000
    N3386    N        0.54099    0.98590    0.35199    1.000
    N3387    N        0.53257    0.91379    0.24774    1.000
    N3388    N        0.52728    0.86938    0.42414    1.000
    Si3389   Si       0.56427    0.85883    0.44407    1.000
    Si3390   Si       0.53886    0.79682    0.44998    1.000
    N3391    N        0.55583    0.78710    0.41147    1.000
    N3392    N        0.55823    0.82848    0.47330    1.000
    N3393    N        0.53812    0.76135    0.47526    1.000
    Si3394   Si       0.53770    0.90353    0.39842    1.000
    N3395    N        0.56885    0.89056    0.37355    1.000
    Si3396   Si       0.52374    0.97143    0.48853    1.000
    N3397    N        0.56204    0.98224    0.46829    1.000
    N3398    N        0.56257    0.93681    0.41203    1.000
    Si3399   Si       0.55692    0.97783    0.42540    1.000
    N3400    N        0.57723    0.89563    0.46394    1.000
    Si3401   Si       0.53858    0.82515    0.57584    1.000
    N3402    N        0.54632    0.80857    0.53605    1.000
    Si3403   Si       0.54259    0.76877    0.51797    1.000
    Si3404   Si       0.56715    0.83614    0.51439    1.000
    N3405    N        0.55370    0.87754    0.52393    1.000
    N3406    N        0.52400    0.79303    0.59992    1.000
    Si3407   Si       0.55140    0.00196    0.67887    1.000
    Si3408   Si       0.54658    0.89241    0.56460    1.000
    Si3409   Si       0.55788    0.98749    0.61293    1.000
    Si3410   Si       0.55544    0.91087    0.49543    1.000
    N3411    N        0.57484    0.94202    0.51930    1.000
    N3412    N        0.51859    0.99421    0.59480    1.000
    N3413    N        0.55585    0.77691    0.66703    1.000
    N3414    N        0.53535    0.84086    0.64551    1.000
    Si3415   Si       0.52487    0.86147    0.68351    1.000
    N3416    N        0.55439    0.87736    0.70909    1.000
    Si3417   Si       0.52547    0.79407    0.64289    1.000
    Si3418   Si       0.52436    0.95769    0.73376    1.000
    N3419    N        0.55499    0.94988    0.63621    1.000
    N3420    N        0.52831    0.96704    0.69059    1.000
    N3421    N        0.56620    0.94614    0.74455    1.000
    N3422    N        0.54274    0.77499    0.79988    1.000
    Si3423   Si       0.52907    0.78887    0.75736    1.000
    N3424    N        0.53833    0.83055    0.85305    1.000
    Si3425   Si       0.52741    0.79134    0.83787    1.000
    Si3426   Si       0.55067    0.86195    0.75230    1.000
    N3427    N        0.55813    0.82055    0.74887    1.000
    N3428    N        0.53795    0.76508    0.87011    1.000
    N3429    N        0.54935    0.96295    0.84818    1.000
    Si3430   Si       0.56746    0.92836    0.78386    1.000
    N3431    N        0.52633    0.92914    0.79566    1.000
    Si3432   Si       0.52650    0.84287    0.98423    1.000
    N3433    N        0.55165    0.80714    0.98122    1.000
    N3434    N        0.54972    0.87631    0.96635    1.000
    Si3435   Si       0.54348    0.76256    0.97288    1.000
    N3436    N        0.56972    0.87725    0.89816    1.000
    Si3437   Si       0.52579    0.97139    0.94051    1.000
    N3438    N        0.52663    0.93325    0.91952    1.000
    Si3439   Si       0.53851    0.88999    0.92590    1.000
    N3440    N        0.55060    0.99660    0.91523    1.000
    Si3441   Si       0.56514    0.96829    0.88707    1.000
    N3442    N        0.53261    0.96965    0.98416    1.000
    Si3443   Si       0.57521    0.84169    0.87153    1.000
    N3444    N        0.51871    0.99457    0.75522    1.000
    N3445    N        0.58974    0.12086    0.05034    1.000
    Si3446   Si       0.59434    0.07653    0.10546    1.000
    Si3447   Si       0.58998    0.07985    0.03458    1.000
    N3448    N        0.62832    0.06576    0.02043    1.000
    N3449    N        0.58328    0.05411    0.06909    1.000
    N3450    N        0.59434    0.24565    0.07203    1.000
    Si3451   Si       0.60310    0.21333    0.04348    1.000
    Si3452   Si       0.62327    0.14455    0.04425    1.000
    N3453    N        0.62477    0.18245    0.06800    1.000
    N3454    N        0.61662    0.16521    0.00656    1.000
    N3455    N        0.62770    0.22900    0.01229    1.000
    N3456    N        0.63320    0.08399    0.12264    1.000
    N3457    N        0.60786    0.07943    0.19353    1.000
    Si3458   Si       0.62243    0.03981    0.19734    1.000
    N3459    N        0.63012    0.01752    0.16088    1.000
    N3460    N        0.58635    0.01586    0.20829    1.000
    Si3461   Si       0.59078    0.00973    0.14499    1.000
    N3462    N        0.58551    0.13144    0.23107    1.000
    Si3463   Si       0.63517    0.09880    0.16577    1.000
    Si3464   Si       0.61173    0.17909    0.16275    1.000
    N3465    N        0.61074    0.20362    0.19914    1.000
    Si3466   Si       0.57798    0.22006    0.21912    1.000
    N3467    N        0.59586    0.25479    0.23801    1.000
    N3468    N        0.60011    0.02455    0.34101    1.000
    N3469    N        0.60655    0.02491    0.27253    1.000
    Si3470   Si       0.62786    0.01805    0.30886    1.000
    Si3471   Si       0.58549    0.06660    0.34614    1.000
    N3472    N        0.58900    0.08554    0.30693    1.000
    Si3473   Si       0.58345    0.13007    0.30508    1.000
    Si3474   Si       0.62520    0.13220    0.24861    1.000
    Si3475   Si       0.62103    0.24622    0.27225    1.000
    N3476    N        0.59438    0.23110    0.30330    1.000
    N3477    N        0.61951    0.14932    0.29049    1.000
    Si3478   Si       0.61247    0.23175    0.34290    1.000
    N3479    N        0.59121    0.20446    0.36722    1.000
    N3480    N        0.60796    0.09204    0.37332    1.000
    Si3481   Si       0.58801    0.09608    0.41085    1.000
    N3482    N        0.61248    0.07648    0.44050    1.000
    Si3483   Si       0.59979    0.08915    0.48081    1.000
    N3484    N        0.60510    0.13318    0.48130    1.000
    N3485    N        0.60528    0.19889    0.45978    1.000
    Si3486   Si       0.58544    0.21099    0.49472    1.000
    N3487    N        0.59400    0.14171    0.41299    1.000
    Si3488   Si       0.59815    0.16303    0.37420    1.000
    Si3489   Si       0.58663    0.15920    0.45151    1.000
    Si3490   Si       0.63733    0.22623    0.44460    1.000
    N3491    N        0.61599    0.10920    0.54756    1.000
    Si3492   Si       0.61749    0.11464    0.58921    1.000
    Si3493   Si       0.60004    0.01867    0.55544    1.000
    N3494    N        0.58011    0.11052    0.61145    1.000
    N3495    N        0.63217    0.04314    0.56938    1.000
    N3496    N        0.63038    0.06318    0.49750    1.000
    Si3497   Si       0.63108    0.19492    0.60647    1.000
    Si3498   Si       0.61164    0.14437    0.52228    1.000
    N3499    N        0.58926    0.20936    0.59804    1.000
    N3500    N        0.62713    0.15188    0.61077    1.000
    N3501    N        0.58675    0.18318    0.52900    1.000
    N3502    N        0.60260    0.24930    0.50469    1.000
    Si3503   Si       0.60745    0.03147    0.67069    1.000
    N3504    N        0.60380    0.06700    0.70142    1.000
    Si3505   Si       0.59503    0.11011    0.70713    1.000
    N3506    N        0.61037    0.12486    0.74364    1.000
    N3507    N        0.61421    0.13020    0.67624    1.000
    N3508    N        0.60169    0.21287    0.69049    1.000
    Si3509   Si       0.60160    0.23152    0.73023    1.000
    Si3510   Si       0.59489    0.13966    0.64043    1.000
    Si3511   Si       0.57790    0.25105    0.59140    1.000
    Si3512   Si       0.59535    0.05589    0.78933    1.000
    Si3513   Si       0.60212    0.03392    0.85244    1.000
    Si3514   Si       0.59890    0.12982    0.81954    1.000
    N3515    N        0.58727    0.01944    0.81311    1.000
    N3516    N        0.63231    0.05477    0.76875    1.000
    N3517    N        0.58036    0.08818    0.81427    1.000
    N3518    N        0.58603    0.13841    0.86052    1.000
    N3519    N        0.61928    0.20261    0.75703    1.000
    Si3520   Si       0.62011    0.21405    0.79986    1.000
    Si3521   Si       0.59485    0.16276    0.75506    1.000
    N3522    N        0.58213    0.23037    0.81011    1.000
    Si3523   Si       0.59787    0.20644    0.91403    1.000
    N3524    N        0.57562    0.15572    0.79400    1.000
    N3525    N        0.61914    0.07200    0.95292    1.000
    Si3526   Si       0.62391    0.04168    0.98447    1.000
    N3527    N        0.58483    0.01971    0.97889    1.000
    N3528    N        0.58097    0.12325    0.92975    1.000
    Si3529   Si       0.60782    0.13415    0.89758    1.000
    Si3530   Si       0.57685    0.08591    0.95436    1.000
    N3531    N        0.62678    0.17361    0.90328    1.000
    Si3532   Si       0.57630    0.17944    0.99281    1.000
    N3533    N        0.62603    0.23961    0.92028    1.000
    N3534    N        0.57759    0.19277    0.95104    1.000
    N3535    N        0.59514    0.33033    0.05893    1.000
    N3536    N        0.62696    0.29687    0.10429    1.000
    Si3537   Si       0.58789    0.31845    0.09998    1.000
    Si3538   Si       0.63287    0.27048    0.00325    1.000
    Si3539   Si       0.63434    0.26447    0.07520    1.000
    N3540    N        0.62560    0.46224    0.02081    1.000
    N3541    N        0.60850    0.39360    0.02980    1.000
    N3542    N        0.60611    0.45273    0.08021    1.000
    Si3543   Si       0.59762    0.43288    0.04163    1.000
    Si3544   Si       0.57795    0.46184    0.11194    1.000
    Si3545   Si       0.63322    0.28751    0.14600    1.000
    N3546    N        0.59892    0.27264    0.16766    1.000
    Si3547   Si       0.59806    0.34550    0.17151    1.000
    Si3548   Si       0.60306    0.28769    0.20964    1.000
    N3549    N        0.58229    0.32483    0.20784    1.000
    N3550    N        0.57916    0.34659    0.13174    1.000
    N3551    N        0.57814    0.50601    0.12277    1.000
    N3552    N        0.60412    0.38726    0.18110    1.000
    N3553    N        0.58804    0.45419    0.15510    1.000
    Si3554   Si       0.62860    0.47091    0.16052    1.000
    N3555    N        0.61593    0.50578    0.18365    1.000
    Si3556   Si       0.63668    0.32751    0.05350    1.000
    N3557    N        0.63793    0.32942    0.15734    1.000
    N3558    N        0.61574    0.33405    0.32143    1.000
    N3559    N        0.60530    0.27493    0.35468    1.000
    Si3560   Si       0.63364    0.29557    0.32877    1.000
    Si3561   Si       0.59251    0.41190    0.30394    1.000
    Si3562   Si       0.62114    0.45364    0.36085    1.000
    N3563    N        0.58509    0.43466    0.34017    1.000
    N3564    N        0.62799    0.49691    0.25741    1.000
    Si3565   Si       0.62432    0.49819    0.30012    1.000
    N3566    N        0.63551    0.40175    0.29921    1.000
    Si3567   Si       0.62624    0.30990    0.42723    1.000
    N3568    N        0.62379    0.26604    0.43113    1.000
    Si3569   Si       0.61410    0.34386    0.49346    1.000
    N3570    N        0.58472    0.31664    0.41606    1.000
    N3571    N        0.59765    0.44098    0.44284    1.000
    Si3572   Si       0.62763    0.50494    0.42072    1.000
    N3573    N        0.61306    0.48879    0.38486    1.000
    Si3574   Si       0.58992    0.47207    0.47053    1.000
    Si3575   Si       0.59801    0.35275    0.61051    1.000
    N3576    N        0.61276    0.30865    0.51964    1.000
    N3577    N        0.62744    0.32414    0.59424    1.000
    N3578    N        0.61281    0.27056    0.57115    1.000
    N3579    N        0.62873    0.37307    0.52301    1.000
    Si3580   Si       0.62515    0.28641    0.61763    1.000
    N3581    N        0.63136    0.37689    0.61878    1.000
    N3582    N        0.58296    0.27746    0.62539    1.000
    N3583    N        0.61937    0.47301    0.50404    1.000
    Si3584   Si       0.59883    0.39752    0.54744    1.000
    Si3585   Si       0.60887    0.46943    0.54483    1.000
    N3586    N        0.62242    0.43127    0.55910    1.000
    N3587    N        0.62714    0.50015    0.57138    1.000
    Si3588   Si       0.59549    0.37271    0.72280    1.000
    N3589    N        0.62478    0.26725    0.72677    1.000
    N3590    N        0.62098    0.33951    0.71281    1.000
    Si3591   Si       0.61118    0.29976    0.69787    1.000
    N3592    N        0.63636    0.29741    0.66023    1.000
    Si3593   Si       0.57836    0.45631    0.65963    1.000
    N3594    N        0.59216    0.41355    0.65680    1.000
    Si3595   Si       0.59350    0.44881    0.73152    1.000
    N3596    N        0.61589    0.41169    0.72662    1.000
    N3597    N        0.60785    0.48794    0.65623    1.000
    N3598    N        0.62511    0.48177    0.72930    1.000
    Si3599   Si       0.63527    0.40841    0.64698    1.000
    Si3600   Si       0.58098    0.27985    0.53275    1.000
    Si3601   Si       0.60596    0.31233    0.83358    1.000
    N3602    N        0.61088    0.27865    0.85982    1.000
    N3603    N        0.58497    0.36538    0.76579    1.000
    N3604    N        0.57856    0.30326    0.79986    1.000
    N3605    N        0.61278    0.41763    0.92599    1.000
    Si3606   Si       0.59122    0.49940    0.81912    1.000
    Si3607   Si       0.59358    0.40114    0.79024    1.000
    N3608    N        0.62443    0.47061    0.82610    1.000
    N3609    N        0.61779    0.49088    0.90033    1.000
    Si3610   Si       0.63109    0.37403    0.99713    1.000
    N3611    N        0.63079    0.36917    0.88034    1.000
    Si3612   Si       0.58568    0.31976    0.95918    1.000
    N3613    N        0.59868    0.31072    0.91717    1.000
    Si3614   Si       0.62408    0.28017    0.90149    1.000
    Si3615   Si       0.59399    0.34822    0.89205    1.000
    N3616    N        0.60657    0.35775    0.96491    1.000
    N3617    N        0.60192    0.28965    0.98441    1.000
    N3618    N        0.58087    0.46379    0.96453    1.000
    Si3619   Si       0.58559    0.38902    0.94503    1.000
    Si3620   Si       0.59514    0.45895    0.92236    1.000
    Si3621   Si       0.60725    0.48929    0.99022    1.000
    N3622    N        0.63114    0.39910    0.81249    1.000
    Si3623   Si       0.60714    0.54598    0.03417    1.000
    N3624    N        0.59333    0.58866    0.04059    1.000
    N3625    N        0.62049    0.52093    0.06787    1.000
    N3626    N        0.60870    0.62416    0.10684    1.000
    Si3627   Si       0.61869    0.52000    0.11217    1.000
    Si3628   Si       0.62981    0.60226    0.02633    1.000
    N3629    N        0.58316    0.52248    0.00634    1.000
    Si3630   Si       0.59173    0.58618    0.12183    1.000
    N3631    N        0.62117    0.67494    0.06065    1.000
    Si3632   Si       0.61809    0.67260    0.01600    1.000
    Si3633   Si       0.61664    0.71412    0.07977    1.000
    N3634    N        0.62676    0.63549    0.99700    1.000
    N3635    N        0.63298    0.71505    0.12093    1.000
    N3636    N        0.61491    0.69402    0.23391    1.000
    Si3637   Si       0.61079    0.71001    0.15952    1.000
    Si3638   Si       0.59044    0.66282    0.21595    1.000
    N3639    N        0.62571    0.55826    0.12811    1.000
    N3640    N        0.60657    0.62183    0.21677    1.000
    N3641    N        0.59996    0.55605    0.23158    1.000
    Si3642   Si       0.60523    0.51250    0.22426    1.000
    Si3643   Si       0.62484    0.59016    0.24373    1.000
    N3644    N        0.63325    0.73517    0.18703    1.000
    N3645    N        0.60727    0.67023    0.17227    1.000
    Si3646   Si       0.59230    0.64257    0.14228    1.000
    Si3647   Si       0.59101    0.63181    0.28478    1.000
    N3648    N        0.63093    0.61570    0.27702    1.000
    Si3649   Si       0.58193    0.51219    0.36315    1.000
    N3650    N        0.58899    0.51078    0.31964    1.000
    N3651    N        0.63423    0.57713    0.37050    1.000
    N3652    N        0.59670    0.65377    0.32131    1.000
    Si3653   Si       0.59578    0.69558    0.27491    1.000
    Si3654   Si       0.60114    0.72779    0.36522    1.000
    N3655    N        0.63434    0.69813    0.36301    1.000
    Si3656   Si       0.63484    0.67248    0.32875    1.000
    N3657    N        0.59790    0.51179    0.45465    1.000
    N3658    N        0.60653    0.58041    0.47230    1.000
    Si3659   Si       0.59399    0.58653    0.38080    1.000
    N3660    N        0.59057    0.61012    0.41702    1.000
    Si3661   Si       0.59770    0.54110    0.48541    1.000
    Si3662   Si       0.62747    0.74849    0.42717    1.000
    Si3663   Si       0.60242    0.65202    0.41508    1.000
    N3664    N        0.59707    0.72543    0.41075    1.000
    N3665    N        0.63601    0.69908    0.29486    1.000
    Si3666   Si       0.60542    0.53960    0.56676    1.000
    Si3667   Si       0.60091    0.61107    0.56448    1.000
    N3668    N        0.61745    0.57697    0.58563    1.000
    N3669    N        0.62031    0.54305    0.52285    1.000
    N3670    N        0.62537    0.62215    0.53201    1.000
    N3671    N        0.58579    0.64280    0.59096    1.000
    N3672    N        0.60986    0.71501    0.57391    1.000
    N3673    N        0.59248    0.67758    0.51729    1.000
    Si3674   Si       0.61455    0.75517    0.54966    1.000
    Si3675   Si       0.60003    0.72162    0.61600    1.000
    Si3676   Si       0.61822    0.65363    0.61796    1.000
    Si3677   Si       0.63053    0.66090    0.51325    1.000
    Si3678   Si       0.62888    0.57988    0.62844    1.000
    N3679    N        0.59841    0.54218    0.71374    1.000
    Si3680   Si       0.61141    0.52718    0.67540    1.000
    N3681    N        0.59247    0.60561    0.70046    1.000
    Si3682   Si       0.62694    0.62890    0.68856    1.000
    N3683    N        0.59855    0.55601    0.64691    1.000
    N3684    N        0.62693    0.62101    0.64456    1.000
    N3685    N        0.61034    0.68839    0.64066    1.000
    N3686    N        0.62123    0.66848    0.70690    1.000
    N3687    N        0.58338    0.72486    0.69712    1.000
    Si3688   Si       0.61165    0.75011    0.72010    1.000
    Si3689   Si       0.59202    0.68684    0.67953    1.000
    N3690    N        0.62092    0.75738    0.63516    1.000
    N3691    N        0.57674    0.74676    0.53280    1.000
    N3692    N        0.61430    0.58350    0.80751    1.000
    Si3693   Si       0.60853    0.62345    0.78927    1.000
    N3694    N        0.59997    0.52946    0.85047    1.000
    Si3695   Si       0.58961    0.56826    0.83575    1.000
    N3696    N        0.59786    0.51862    0.78300    1.000
    Si3697   Si       0.61948    0.62920    0.86258    1.000
    Si3698   Si       0.61774    0.52266    0.74594    1.000
    N3699    N        0.59201    0.59655    0.87370    1.000
    Si3700   Si       0.62127    0.68911    0.80708    1.000
    N3701    N        0.61714    0.64809    0.82418    1.000
    N3702    N        0.58245    0.70678    0.79625    1.000
    Si3703   Si       0.57868    0.74989    0.79931    1.000
    Si3704   Si       0.63242    0.52208    0.92775    1.000
    Si3705   Si       0.60278    0.58769    0.91592    1.000
    N3706    N        0.59607    0.54533    0.92084    1.000
    Si3707   Si       0.58395    0.51766    0.88860    1.000
    N3708    N        0.61259    0.65765    0.89523    1.000
    Si3709   Si       0.59295    0.71343    0.93739    1.000
    N3710    N        0.63310    0.70328    0.94025    1.000
    N3711    N        0.58243    0.74370    0.96622    1.000
    N3712    N        0.62924    0.75978    0.88838    1.000
    N3713    N        0.60401    0.78576    0.01677    1.000
    Si3714   Si       0.60267    0.83145    0.09221    1.000
    Si3715   Si       0.60760    0.77697    0.05837    1.000
    N3716    N        0.61938    0.87187    0.08687    1.000
    N3717    N        0.61075    0.85569    0.99962    1.000
    N3718    N        0.57946    0.91301    0.13182    1.000
    Si3719   Si       0.60158    0.94611    0.03036    1.000
    N3720    N        0.61290    0.93835    0.07158    1.000
    Si3721   Si       0.59140    0.90446    0.08891    1.000
    N3722    N        0.59667    0.99265    0.10596    1.000
    Si3723   Si       0.63052    0.96614    0.10319    1.000
    N3724    N        0.57811    0.91279    0.02019    1.000
    Si3725   Si       0.60558    0.99341    0.24212    1.000
    N3726    N        0.63449    0.95000    0.00092    1.000
    N3727    N        0.59563    0.83759    0.13508    1.000
    Si3728   Si       0.61218    0.81399    0.16688    1.000
    N3729    N        0.63348    0.77864    0.23959    1.000
    N3730    N        0.58524    0.86752    0.18839    1.000
    Si3731   Si       0.61534    0.86318    0.22017    1.000
    N3732    N        0.58342    0.78962    0.18667    1.000
    Si3733   Si       0.60545    0.76044    0.21187    1.000
    Si3734   Si       0.59842    0.79643    0.32671    1.000
    N3735    N        0.58649    0.79684    0.28562    1.000
    Si3736   Si       0.62929    0.80748    0.27367    1.000
    Si3737   Si       0.60934    0.87733    0.28295    1.000
    N3738    N        0.63665    0.85072    0.26361    1.000
    N3739    N        0.58101    0.87488    0.24857    1.000
    N3740    N        0.63951    0.81042    0.31693    1.000
    N3741    N        0.61451    0.75778    0.33954    1.000
    N3742    N        0.62726    0.91716    0.29051    1.000
    N3743    N        0.60357    0.95053    0.35329    1.000
    Si3744   Si       0.58334    0.98928    0.36040    1.000
    Si3745   Si       0.62556    0.93368    0.25144    1.000
    N3746    N        0.58580    0.95473    0.24667    1.000
    N3747    N        0.63106    0.77022    0.46387    1.000
    Si3748   Si       0.59162    0.80696    0.39833    1.000
    N3749    N        0.59578    0.84521    0.41911    1.000
    N3750    N        0.62800    0.78474    0.40183    1.000
    Si3751   Si       0.63525    0.86363    0.42086    1.000
    Si3752   Si       0.61786    0.90857    0.45501    1.000
    Si3753   Si       0.59500    0.92216    0.38397    1.000
    N3754    N        0.62737    0.90815    0.41138    1.000
    N3755    N        0.58813    0.99699    0.40128    1.000
    N3756    N        0.62514    0.94535    0.47452    1.000
    Si3757   Si       0.63076    0.99793    0.41301    1.000
    Si3758   Si       0.59676    0.97372    0.49235    1.000
    N3759    N        0.61108    0.83327    0.52256    1.000
    Si3760   Si       0.61227    0.83031    0.56787    1.000
    N3761    N        0.61785    0.78787    0.57736    1.000
    N3762    N        0.57998    0.91563    0.58381    1.000
    N3763    N        0.61943    0.99178    0.52584    1.000
    Si3764   Si       0.59635    0.94831    0.55743    1.000
    N3765    N        0.58597    0.98360    0.58010    1.000
    Si3766   Si       0.63102    0.82879    0.68577    1.000
    Si3767   Si       0.59792    0.78250    0.66322    1.000
    N3768    N        0.60804    0.82296    0.64950    1.000
    N3769    N        0.61264    0.79418    0.70548    1.000
    N3770    N        0.62120    0.86721    0.70176    1.000
    Si3771   Si       0.57688    0.84757    0.63262    1.000
    N3772    N        0.57626    0.84334    0.58831    1.000
    Si3773   Si       0.59966    0.96214    0.72088    1.000
    Si3774   Si       0.58923    0.89320    0.68965    1.000
    N3775    N        0.61042    0.93139    0.69335    1.000
    N3776    N        0.58955    0.00035    0.69966    1.000
    N3777    N        0.58525    0.88721    0.64688    1.000
    Si3778   Si       0.58770    0.92502    0.62472    1.000
    N3779    N        0.62971    0.94294    0.62702    1.000
    Si3780   Si       0.60903    0.86159    0.80012    1.000
    N3781    N        0.60673    0.84698    0.84218    1.000
    N3782    N        0.62409    0.83317    0.76939    1.000
    N3783    N        0.59793    0.76415    0.76002    1.000
    N3784    N        0.59780    0.76188    0.83535    1.000
    N3785    N        0.57748    0.88451    0.78102    1.000
    N3786    N        0.59952    0.94926    0.80220    1.000
    N3787    N        0.60037    0.99403    0.86565    1.000
    Si3788   Si       0.58211    0.98054    0.82629    1.000
    N3789    N        0.59863    0.94209    0.90068    1.000
    Si3790   Si       0.58276    0.76507    0.87752    1.000
    N3791    N        0.58930    0.80659    0.89207    1.000
    N3792    N        0.61596    0.79931    0.95392    1.000
    Si3793   Si       0.59384    0.81820    0.98934    1.000
    Si3794   Si       0.62676    0.79698    0.91238    1.000
    Si3795   Si       0.61799    0.76544    0.97941    1.000
    Si3796   Si       0.62949    0.97350    0.88958    1.000
    Si3797   Si       0.60579    0.89847    0.90911    1.000
    Si3798   Si       0.58585    0.88966    0.98423    1.000
    N3799    N        0.61179    0.90251    0.95135    1.000
    Si3800   Si       0.59835    0.80575    0.74687    1.000
    N3801    N        0.63165    0.97516    0.74570    1.000
    Si3802   Si       0.66625    0.08026    0.03558    1.000
    Si3803   Si       0.67161    0.07451    0.10833    1.000
    N3804    N        0.65982    0.12194    0.05187    1.000
    N3805    N        0.67740    0.05414    0.06936    1.000
    Si3806   Si       0.68654    0.01077    0.07693    1.000
    N3807    N        0.69646    0.08387    0.00349    1.000
    Si3808   Si       0.69240    0.13785    0.07917    1.000
    N3809    N        0.66338    0.23417    0.08482    1.000
    Si3810   Si       0.65189    0.19556    0.09861    1.000
    N3811    N        0.68721    0.19443    0.03077    1.000
    N3812    N        0.69034    0.17739    0.09551    1.000
    Si3813   Si       0.65166    0.19399    0.00135    1.000
    Si3814   Si       0.67823    0.07657    0.22882    1.000
    N3815    N        0.67420    0.09770    0.18880    1.000
    N3816    N        0.65738    0.03750    0.22197    1.000
    N3817    N        0.69043    0.04998    0.14091    1.000
    Si3818   Si       0.67170    0.01020    0.14997    1.000
    Si3819   Si       0.64618    0.19793    0.22194    1.000
    N3820    N        0.67691    0.21130    0.19671    1.000
    N3821    N        0.63868    0.20347    0.13812    1.000
    N3822    N        0.63669    0.14293    0.16532    1.000
    Si3823   Si       0.67347    0.14088    0.19113    1.000
    Si3824   Si       0.67440    0.22602    0.15573    1.000
    N3825    N        0.65388    0.15573    0.22710    1.000
    N3826    N        0.66424    0.04236    0.30824    1.000
    N3827    N        0.66190    0.11006    0.32485    1.000
    Si3828   Si       0.66548    0.08250    0.29161    1.000
    Si3829   Si       0.64720    0.10929    0.36412    1.000
    N3830    N        0.64306    0.09440    0.25576    1.000
    Si3831   Si       0.65411    0.15141    0.31927    1.000
    N3832    N        0.65562    0.22657    0.34748    1.000
    N3833    N        0.64999    0.21353    0.26208    1.000
    Si3834   Si       0.68721    0.20488    0.28016    1.000
    N3835    N        0.69009    0.17187    0.30955    1.000
    N3836    N        0.64159    0.15653    0.36134    1.000
    Si3837   Si       0.68847    0.25321    0.33978    1.000
    N3838    N        0.67813    0.09594    0.39013    1.000
    N3839    N        0.65082    0.03075    0.39639    1.000
    N3840    N        0.68400    0.05830    0.44565    1.000
    Si3841   Si       0.68514    0.05551    0.40252    1.000
    Si3842   Si       0.64224    0.04920    0.45788    1.000
    Si3843   Si       0.66504    0.19249    0.37404    1.000
    N3844    N        0.66016    0.20302    0.41662    1.000
    N3845    N        0.66063    0.24021    0.47738    1.000
    N3846    N        0.63250    0.00900    0.45575    1.000
    Si3847   Si       0.65429    0.05027    0.60606    1.000
    N3848    N        0.68222    0.08665    0.53575    1.000
    N3849    N        0.65060    0.09316    0.60868    1.000
    Si3850   Si       0.68470    0.12293    0.51405    1.000
    Si3851   Si       0.64097    0.07406    0.53903    1.000
    Si3852   Si       0.67279    0.13166    0.61528    1.000
    Si3853   Si       0.67632    0.18118    0.55065    1.000
    N3854    N        0.65608    0.15508    0.52259    1.000
    N3855    N        0.65062    0.21002    0.57138    1.000
    Si3856   Si       0.65402    0.25217    0.56987    1.000
    N3857    N        0.68753    0.15465    0.58309    1.000
    N3858    N        0.66151    0.03285    0.70934    1.000
    N3859    N        0.66697    0.10083    0.71572    1.000
    Si3860   Si       0.68097    0.03228    0.66903    1.000
    N3861    N        0.64272    0.03056    0.64623    1.000
    Si3862   Si       0.64172    0.06755    0.72690    1.000
    Si3863   Si       0.64034    0.20222    0.67760    1.000
    N3864    N        0.68101    0.23611    0.73447    1.000
    Si3865   Si       0.65654    0.13711    0.69189    1.000
    Si3866   Si       0.68770    0.23957    0.63157    1.000
    N3867    N        0.65820    0.17794    0.70646    1.000
    N3868    N        0.67948    0.14286    0.65613    1.000
    N3869    N        0.65404    0.21214    0.63901    1.000
    Si3870   Si       0.66214    0.19849    0.74446    1.000
    Si3871   Si       0.65474    0.09417    0.85247    1.000
    Si3872   Si       0.65651    0.03918    0.80082    1.000
    N3873    N        0.64201    0.12232    0.82201    1.000
    N3874    N        0.63839    0.05593    0.83798    1.000
    Si3875   Si       0.66475    0.15824    0.81240    1.000
    N3876    N        0.67948    0.17694    0.77703    1.000
    N3877    N        0.66829    0.23167    0.86143    1.000
    N3878    N        0.65238    0.24394    0.79466    1.000
    Si3879   Si       0.68470    0.24464    0.82157    1.000
    N3880    N        0.63904    0.18766    0.83041    1.000
    N3881    N        0.65797    0.01481    0.97778    1.000
    Si3882   Si       0.67277    0.02205    0.93799    1.000
    N3883    N        0.66275    0.12734    0.94939    1.000
    Si3884   Si       0.65293    0.08941    0.93114    1.000
    N3885    N        0.68743    0.06317    0.93361    1.000
    N3886    N        0.64031    0.10448    0.89118    1.000
    N3887    N        0.66197    0.19671    0.96067    1.000
    Si3888   Si       0.65290    0.19246    0.87128    1.000
    N3889    N        0.68519    0.16834    0.89320    1.000
    Si3890   Si       0.66162    0.23608    0.94370    1.000
    Si3891   Si       0.66418    0.16468    0.93056    1.000
    Si3892   Si       0.69899    0.11418    0.97194    1.000
    N3893    N        0.65693    0.34889    0.02136    1.000
    N3894    N        0.65379    0.35804    0.08098    1.000
    Si3895   Si       0.67692    0.37702    0.04973    1.000
    N3896    N        0.65060    0.28751    0.03977    1.000
    Si3897   Si       0.69013    0.28221    0.01832    1.000
    N3898    N        0.66516    0.38800    0.14105    1.000
    Si3899   Si       0.66145    0.43900    0.00842    1.000
    N3900    N        0.67893    0.48729    0.06151    1.000
    N3901    N        0.67714    0.41983    0.04525    1.000
    Si3902   Si       0.63610    0.48069    0.06405    1.000
    Si3903   Si       0.66152    0.34839    0.12264    1.000
    N3904    N        0.67255    0.26943    0.14848    1.000
    Si3905   Si       0.66098    0.32932    0.19367    1.000
    N3906    N        0.64340    0.29964    0.21821    1.000
    N3907    N        0.66442    0.37081    0.21077    1.000
    Si3908   Si       0.69079    0.48860    0.12527    1.000
    Si3909   Si       0.69379    0.44909    0.18617    1.000
    N3910    N        0.65188    0.44052    0.18240    1.000
    Si3911   Si       0.64631    0.39624    0.18021    1.000
    N3912    N        0.64758    0.49231    0.12670    1.000
    N3913    N        0.67281    0.29330    0.34595    1.000
    N3914    N        0.66292    0.34297    0.27208    1.000
    N3915    N        0.68004    0.36359    0.33795    1.000
    Si3916   Si       0.66428    0.30157    0.25795    1.000
    Si3917   Si       0.64785    0.36063    0.30798    1.000
    Si3918   Si       0.68351    0.32908    0.36848    1.000
    N3919    N        0.63902    0.28104    0.28733    1.000
    N3920    N        0.64053    0.46597    0.32344    1.000
    Si3921   Si       0.66586    0.43416    0.29754    1.000
    N3922    N        0.69150    0.46936    0.28057    1.000
    N3923    N        0.69059    0.40862    0.26473    1.000
    Si3924   Si       0.67141    0.50578    0.26300    1.000
    Si3925   Si       0.66837    0.35512    0.43825    1.000
    N3926    N        0.65524    0.33241    0.40180    1.000
    N3927    N        0.63899    0.33048    0.46274    1.000
    Si3928   Si       0.63738    0.43327    0.42783    1.000
    Si3929   Si       0.68681    0.42945    0.37448    1.000
    N3930    N        0.65467    0.47177    0.44181    1.000
    Si3931   Si       0.69257    0.41193    0.47158    1.000
    N3932    N        0.66105    0.39740    0.44400    1.000
    Si3933   Si       0.65862    0.47540    0.48556    1.000
    Si3934   Si       0.69007    0.48980    0.42173    1.000
    N3935    N        0.64636    0.43075    0.38759    1.000
    Si3936   Si       0.68705    0.37021    0.24731    1.000
    Si3937   Si       0.66399    0.35407    0.59722    1.000
    Si3938   Si       0.67084    0.37509    0.53478    1.000
    N3939    N        0.67697    0.33342    0.55607    1.000
    N3940    N        0.66628    0.27658    0.53637    1.000
    N3941    N        0.66518    0.27041    0.61006    1.000
    Si3942   Si       0.63901    0.27098    0.49956    1.000
    Si3943   Si       0.63929    0.30918    0.55389    1.000
    N3944    N        0.67586    0.39167    0.57539    1.000
    Si3945   Si       0.66026    0.43166    0.58155    1.000
    N3946    N        0.68300    0.46256    0.56443    1.000
    Si3947   Si       0.66829    0.50074    0.57998    1.000
    N3948    N        0.64963    0.44116    0.62267    1.000
    N3949    N        0.67614    0.50517    0.62066    1.000
    N3950    N        0.68735    0.44608    0.49908    1.000
    Si3951   Si       0.67826    0.30023    0.65404    1.000
    Si3952   Si       0.66380    0.33393    0.72617    1.000
    N3953    N        0.68868    0.33791    0.63054    1.000
    N3954    N        0.67738    0.37195    0.74046    1.000
    N3955    N        0.69202    0.32701    0.69090    1.000
    Si3956   Si       0.69305    0.36435    0.66423    1.000
    N3957    N        0.66234    0.39376    0.67759    1.000
    N3958    N        0.67814    0.44094    0.73915    1.000
    N3959    N        0.67360    0.46809    0.67739    1.000
    Si3960   Si       0.66008    0.40626    0.71913    1.000
    Si3961   Si       0.64765    0.47859    0.64465    1.000
    Si3962   Si       0.66728    0.47848    0.71819    1.000
    Si3963   Si       0.67796    0.31881    0.79817    1.000
    N3964    N        0.66883    0.30608    0.75889    1.000
    Si3965   Si       0.65768    0.26501    0.75547    1.000
    N3966    N        0.64628    0.33004    0.82594    1.000
    Si3967   Si       0.65116    0.37122    0.84141    1.000
    Si3968   Si       0.65348    0.43506    0.82343    1.000
    N3969    N        0.67879    0.49506    0.86072    1.000
    N3970    N        0.69017    0.45269    0.80828    1.000
    Si3971   Si       0.64190    0.47700    0.86606    1.000
    N3972    N        0.64818    0.43389    0.86893    1.000
    N3973    N        0.69345    0.46705    0.99577    1.000
    N3974    N        0.66799    0.28888    0.90703    1.000
    N3975    N        0.67546    0.34107    0.95027    1.000
    N3976    N        0.67006    0.26928    0.97657    1.000
    Si3977   Si       0.68486    0.30026    0.94731    1.000
    Si3978   Si       0.69141    0.25846    0.88665    1.000
    Si3979   Si       0.64474    0.40481    0.90041    1.000
    Si3980   Si       0.68771    0.38151    0.95939    1.000
    N3981    N        0.68364    0.40157    0.92006    1.000
    N3982    N        0.64062    0.50351    0.96520    1.000
    N3983    N        0.65875    0.40258    0.98234    1.000
    Si3984   Si       0.68418    0.49838    0.96769    1.000
    N3985    N        0.69378    0.38221    0.85244    1.000
    N3986    N        0.65719    0.61272    0.05710    1.000
    Si3987   Si       0.68229    0.56266    0.00687    1.000
    N3988    N        0.68945    0.59256    0.11390    1.000
    N3989    N        0.69302    0.56034    0.04876    1.000
    N3990    N        0.64019    0.56400    0.01031    1.000
    Si3991   Si       0.69536    0.59701    0.06812    1.000
    Si3992   Si       0.66629    0.73866    0.02203    1.000
    N3993    N        0.67037    0.66046    0.10654    1.000
    N3994    N        0.65087    0.70057    0.00614    1.000
    Si3995   Si       0.67585    0.70138    0.11731    1.000
    N3996    N        0.64011    0.74434    0.05700    1.000
    N3997    N        0.65405    0.61623    0.15917    1.000
    N3998    N        0.66160    0.58931    0.22178    1.000
    Si3999   Si       0.65912    0.57639    0.14677    1.000
    N4000    N        0.69170    0.55665    0.16898    1.000
    Si4001   Si       0.64775    0.62821    0.20021    1.000
    N4002    N        0.69092    0.71296    0.15653    1.000
    Si4003   Si       0.68610    0.63103    0.13270    1.000
    Si4004   Si       0.65323    0.70559    0.21614    1.000
    Si4005   Si       0.66573    0.75246    0.15954    1.000
    N4006    N        0.67146    0.66387    0.20644    1.000
    Si4007   Si       0.63892    0.64267    0.08282    1.000
    N4008    N        0.65794    0.52854    0.29990    1.000
    Si4009   Si       0.67195    0.62237    0.29034    1.000
    Si4010   Si       0.69330    0.54793    0.31747    1.000
    N4011    N        0.67260    0.64955    0.32448    1.000
    Si4012   Si       0.67506    0.71664    0.28854    1.000
    Si4013   Si       0.66035    0.69380    0.39552    1.000
    N4014    N        0.68630    0.71073    0.24572    1.000
    Si4015   Si       0.66886    0.56514    0.39227    1.000
    N4016    N        0.66498    0.52561    0.41291    1.000
    N4017    N        0.67705    0.59398    0.42376    1.000
    N4018    N        0.67715    0.51494    0.49199    1.000
    Si4019   Si       0.66730    0.63314    0.44027    1.000
    Si4020   Si       0.63751    0.60267    0.49531    1.000
    N4021    N        0.64429    0.65516    0.40983    1.000
    N4022    N        0.66439    0.72402    0.42515    1.000
    N4023    N        0.64512    0.63948    0.47462    1.000
    N4024    N        0.68125    0.53964    0.56225    1.000
    Si4025   Si       0.66313    0.54394    0.52255    1.000
    N4026    N        0.67372    0.58312    0.50729    1.000
    Si4027   Si       0.65026    0.69261    0.72949    1.000
    N4028    N        0.65040    0.75664    0.52586    1.000
    N4029    N        0.68892    0.68098    0.71517    1.000
    Si4030   Si       0.64885    0.69722    0.57125    1.000
    N4031    N        0.65453    0.66020    0.59426    1.000
    N4032    N        0.66788    0.73187    0.58866    1.000
    N4033    N        0.65932    0.68944    0.52909    1.000
    Si4034   Si       0.68181    0.72541    0.52147    1.000
    N4035    N        0.65359    0.52949    0.67628    1.000
    N4036    N        0.67234    0.57318    0.62645    1.000
    Si4037   Si       0.68760    0.53570    0.64869    1.000
    N4038    N        0.66654    0.61807    0.69657    1.000
    Si4039   Si       0.68536    0.60176    0.65813    1.000
    N4040    N        0.65044    0.73403    0.72104    1.000
    Si4041   Si       0.68744    0.75158    0.73397    1.000
    Si4042   Si       0.65101    0.57902    0.78601    1.000
    N4043    N        0.65403    0.54707    0.75640    1.000
    N4044    N        0.68350    0.58505    0.81279    1.000
    N4045    N        0.64770    0.61918    0.77137    1.000
    Si4046   Si       0.68839    0.61714    0.84105    1.000
    Si4047   Si       0.68681    0.69486    0.84639    1.000
    N4048    N        0.64731    0.68282    0.77207    1.000
    Si4049   Si       0.67380    0.64887    0.78407    1.000
    N4050    N        0.68458    0.65734    0.82458    1.000
    N4051    N        0.64528    0.71204    0.83629    1.000
    Si4052   Si       0.64044    0.75429    0.84728    1.000
    N4053    N        0.65983    0.61206    0.87337    1.000
    Si4054   Si       0.65769    0.62250    0.96937    1.000
    N4055    N        0.66449    0.54581    0.90756    1.000
    Si4056   Si       0.67167    0.58922    0.90839    1.000
    N4057    N        0.69113    0.60338    0.99141    1.000
    N4058    N        0.63948    0.59952    0.93600    1.000
    Si4059   Si       0.66557    0.69424    0.96611    1.000
    N4060    N        0.68232    0.68651    0.88930    1.000
    N4061    N        0.67623    0.65425    0.94627    1.000
    Si4062   Si       0.64909    0.67094    0.91268    1.000
    Si4063   Si       0.69552    0.53810    0.75782    1.000
    N4064    N        0.67460    0.86403    0.04504    1.000
    Si4065   Si       0.66356    0.86915    0.08685    1.000
    Si4066   Si       0.65516    0.85580    0.00501    1.000
    N4067    N        0.67952    0.84156    0.11734    1.000
    Si4068   Si       0.66409    0.80196    0.11234    1.000
    N4069    N        0.67074    0.99005    0.04347    1.000
    Si4070   Si       0.66575    0.97911    0.00340    1.000
    N4071    N        0.66417    0.99406    0.11063    1.000
    N4072    N        0.68267    0.90715    0.09904    1.000
    N4073    N        0.68877    0.77372    0.19235    1.000
    Si4074   Si       0.66577    0.80200    0.21749    1.000
    N4075    N        0.63909    0.78769    0.14517    1.000
    N4076    N        0.63830    0.83040    0.19878    1.000
    Si4077   Si       0.67759    0.92701    0.13879    1.000
    Si4078   Si       0.67614    0.89808    0.20538    1.000
    N4079    N        0.68986    0.99214    0.18536    1.000
    Si4080   Si       0.67696    0.99927    0.22934    1.000
    N4081    N        0.67992    0.89256    0.16313    1.000
    N4082    N        0.64300    0.97253    0.23607    1.000
    N4083    N        0.63939    0.94557    0.14084    1.000
    N4084    N        0.63507    0.80520    0.07988    1.000
    N4085    N        0.63706    0.90315    0.22196    1.000
    Si4086   Si       0.65557    0.77289    0.33341    1.000
    Si4087   Si       0.67943    0.85274    0.26679    1.000
    N4088    N        0.68366    0.78706    0.36049    1.000
    N4089    N        0.68456    0.81144    0.25583    1.000
    N4090    N        0.69307    0.87031    0.30188    1.000
    N4091    N        0.67384    0.75919    0.29780    1.000
    N4092    N        0.67124    0.93359    0.35432    1.000
    N4093    N        0.64938    0.98086    0.30739    1.000
    Si4094   Si       0.63899    0.94267    0.32537    1.000
    Si4095   Si       0.68694    0.00454    0.30500    1.000
    N4096    N        0.64122    0.87198    0.46251    1.000
    Si4097   Si       0.66919    0.79765    0.39940    1.000
    N4098    N        0.66459    0.83924    0.40337    1.000
    Si4099   Si       0.66275    0.77790    0.49050    1.000
    Si4100   Si       0.65763    0.97250    0.46349    1.000
    Si4101   Si       0.66435    0.92865    0.39796    1.000
    N4102    N        0.65863    0.96537    0.41975    1.000
    N4103    N        0.69395    0.89951    0.40784    1.000
    N4104    N        0.68040    0.79843    0.60883    1.000
    N4105    N        0.64744    0.85495    0.57507    1.000
    Si4106   Si       0.64848    0.77017    0.60357    1.000
    Si4107   Si       0.68526    0.84010    0.59335    1.000
    Si4108   Si       0.64558    0.85109    0.50230    1.000
    N4109    N        0.67647    0.81790    0.49829    1.000
    N4110    N        0.66795    0.88674    0.52062    1.000
    Si4111   Si       0.65546    0.97472    0.53780    1.000
    Si4112   Si       0.66625    0.94990    0.60221    1.000
    N4113    N        0.68185    0.98044    0.57340    1.000
    Si4114   Si       0.65579    0.89648    0.56164    1.000
    N4115    N        0.68198    0.90806    0.59271    1.000
    N4116    N        0.68038    0.97716    0.50199    1.000
    N4117    N        0.63970    0.93670    0.55610    1.000
    N4118    N        0.67325    0.83607    0.68717    1.000
    Si4119   Si       0.66416    0.87761    0.70472    1.000
    N4120    N        0.67320    0.90449    0.67071    1.000
    Si4121   Si       0.66648    0.99372    0.72744    1.000
    Si4122   Si       0.64582    0.93754    0.66792    1.000
    N4123    N        0.66658    0.96761    0.69128    1.000
    Si4124   Si       0.64659    0.86600    0.85013    1.000
    Si4125   Si       0.66667    0.83355    0.76041    1.000
    N4126    N        0.68470    0.84680    0.85910    1.000
    N4127    N        0.67385    0.77205    0.82662    1.000
    N4128    N        0.64678    0.88189    0.80949    1.000
    N4129    N        0.69493    0.82524    0.79399    1.000
    N4130    N        0.67599    0.79187    0.74993    1.000
    N4131    N        0.67585    0.87383    0.74572    1.000
    Si4132   Si       0.67755    0.89575    0.78250    1.000
    N4133    N        0.67307    0.93726    0.78087    1.000
    N4134    N        0.65398    0.99661    0.80853    1.000
    Si4135   Si       0.68240    0.98319    0.83724    1.000
    N4136    N        0.66177    0.95703    0.86562    1.000
    Si4137   Si       0.63791    0.96293    0.78552    1.000
    N4138    N        0.68024    0.83009    0.98471    1.000
    N4139    N        0.66896    0.80771    0.91949    1.000
    Si4140   Si       0.67920    0.79452    0.96132    1.000
    N4141    N        0.66141    0.76306    0.98512    1.000
    N4142    N        0.67007    0.93690    0.93190    1.000
    N4143    N        0.63972    0.00767    0.91242    1.000
    Si4144   Si       0.67087    0.92291    0.88851    1.000
    N4145    N        0.64061    0.89172    0.88472    1.000
    Si4146   Si       0.64875    0.92237    0.96701    1.000
    N4147    N        0.67381    0.89248    0.98469    1.000
    N4148    N        0.73701    0.01828    0.02000    1.000
    Si4149   Si       0.73125    0.05867    0.00631    1.000
    N4150    N        0.69936    0.10817    0.11085    1.000
    N4151    N        0.72945    0.14070    0.05576    1.000
    Si4152   Si       0.72343    0.17143    0.02673    1.000
    Si4153   Si       0.72909    0.18954    0.11332    1.000
    N4154    N        0.74508    0.21107    0.07909    1.000
    N4155    N        0.71387    0.25586    0.04490    1.000
    Si4156   Si       0.69907    0.22172    0.06601    1.000
    Si4157   Si       0.74130    0.11651    0.12133    1.000
    Si4158   Si       0.70815    0.07790    0.16848    1.000
    N4159    N        0.71860    0.05927    0.20671    1.000
    N4160    N        0.74657    0.09877    0.16068    1.000
    N4161    N        0.71341    0.15604    0.18871    1.000
    N4162    N        0.74360    0.23135    0.19847    1.000
    N4163    N        0.71333    0.21738    0.14238    1.000
    Si4164   Si       0.71787    0.19553    0.20650    1.000
    Si4165   Si       0.74634    0.23828    0.15552    1.000
    N4166    N        0.73480    0.03990    0.30845    1.000
    Si4167   Si       0.74118    0.07626    0.28657    1.000
    Si4168   Si       0.74053    0.02179    0.34798    1.000
    Si4169   Si       0.74326    0.01658    0.27126    1.000
    N4170    N        0.70208    0.08318    0.26704    1.000
    Si4171   Si       0.72480    0.17118    0.33715    1.000
    N4172    N        0.71796    0.19532    0.25137    1.000
    N4173    N        0.69916    0.24231    0.29815    1.000
    N4174    N        0.70778    0.19271    0.37194    1.000
    N4175    N        0.74994    0.14157    0.35689    1.000
    N4176    N        0.72850    0.25693    0.35832    1.000
    N4177    N        0.75244    0.19589    0.31656    1.000
    N4178    N        0.70357    0.11675    0.47422    1.000
    N4179    N        0.71885    0.03476    0.38517    1.000
    Si4180   Si       0.71898    0.07891    0.46091    1.000
    N4181    N        0.74703    0.07923    0.42807    1.000
    N4182    N        0.72622    0.23061    0.42049    1.000
    Si4183   Si       0.73833    0.22376    0.38110    1.000
    N4184    N        0.73193    0.25014    0.48451    1.000
    Si4185   Si       0.72711    0.15376    0.47030    1.000
    N4186    N        0.73153    0.15900    0.42651    1.000
    Si4187   Si       0.69723    0.22499    0.49285    1.000
    N4188    N        0.69948    0.18801    0.47002    1.000
    Si4189   Si       0.75402    0.25311    0.44772    1.000
    Si4190   Si       0.70248    0.19345    0.42685    1.000
    N4191    N        0.73554    0.05909    0.49401    1.000
    Si4192   Si       0.72247    0.07075    0.53435    1.000
    N4193    N        0.73127    0.02660    0.54402    1.000
    N4194    N        0.74718    0.09609    0.56042    1.000
    N4195    N        0.72214    0.11810    0.61582    1.000
    Si4196   Si       0.71404    0.01041    0.58082    1.000
    N4197    N        0.69680    0.04337    0.60190    1.000
    Si4198   Si       0.72916    0.13703    0.57356    1.000
    Si4199   Si       0.71258    0.24949    0.70640    1.000
    N4200    N        0.71820    0.14704    0.52819    1.000
    N4201    N        0.70519    0.20955    0.53349    1.000
    Si4202   Si       0.74412    0.18435    0.53260    1.000
    N4203    N        0.72472    0.23252    0.61119    1.000
    Si4204   Si       0.75225    0.19838    0.61003    1.000
    N4205    N        0.75346    0.17186    0.57457    1.000
    Si4206   Si       0.71934    0.07515    0.62352    1.000
    N4207    N        0.73569    0.12197    0.69050    1.000
    Si4208   Si       0.70732    0.09001    0.70230    1.000
    N4209    N        0.72608    0.06265    0.72778    1.000
    Si4210   Si       0.75286    0.01493    0.64138    1.000
    N4211    N        0.70049    0.07052    0.66374    1.000
    N4212    N        0.75033    0.17653    0.64564    1.000
    N4213    N        0.73971    0.21578    0.70793    1.000
    Si4214   Si       0.72363    0.14105    0.65434    1.000
    Si4215   Si       0.72744    0.11522    0.83327    1.000
    Si4216   Si       0.71283    0.05012    0.83588    1.000
    Si4217   Si       0.71997    0.03293    0.76034    1.000
    N4218    N        0.70225    0.01561    0.85987    1.000
    N4219    N        0.74935    0.12845    0.86953    1.000
    N4220    N        0.69881    0.04717    0.79524    1.000
    N4221    N        0.75161    0.10159    0.80187    1.000
    N4222    N        0.69844    0.08819    0.84806    1.000
    Si4223   Si       0.71823    0.18353    0.79569    1.000
    N4224    N        0.72031    0.22339    0.81188    1.000
    N4225    N        0.70770    0.15516    0.82985    1.000
    N4226    N        0.74895    0.16921    0.77175    1.000
    N4227    N        0.73232    0.11481    0.94289    1.000
    Si4228   Si       0.73259    0.07288    0.93329    1.000
    N4229    N        0.74982    0.05306    0.89696    1.000
    Si4230   Si       0.72935    0.01290    0.89315    1.000
    N4231    N        0.71492    0.14946    0.99146    1.000
    N4232    N        0.75349    0.05911    0.96816    1.000
    N4233    N        0.75079    0.19420    0.88018    1.000
    Si4234   Si       0.72184    0.16338    0.86970    1.000
    N4235    N        0.70092    0.23504    0.92298    1.000
    Si4236   Si       0.74812    0.15097    0.96008    1.000
    Si4237   Si       0.73879    0.21657    0.91616    1.000
    N4238    N        0.74873    0.19249    0.95086    1.000
    Si4239   Si       0.72741    0.34752    0.09162    1.000
    Si4240   Si       0.73566    0.35239    0.01227    1.000
    N4241    N        0.71685    0.36162    0.05142    1.000
    N4242    N        0.72180    0.31209    0.00748    1.000
    N4243    N        0.69923    0.32473    0.11755    1.000
    N4244    N        0.73277    0.38506    0.11117    1.000
    N4245    N        0.74158    0.45116    0.04478    1.000
    Si4246   Si       0.73165    0.48000    0.01193    1.000
    Si4247   Si       0.70208    0.44864    0.06532    1.000
    N4248    N        0.69979    0.44770    0.10928    1.000
    Si4249   Si       0.70674    0.29687    0.15004    1.000
    Si4250   Si       0.72763    0.31467    0.22409    1.000
    N4251    N        0.70385    0.31937    0.18683    1.000
    N4252    N        0.74708    0.28169    0.14549    1.000
    N4253    N        0.71641    0.45839    0.22101    1.000
    N4254    N        0.70284    0.48726    0.16764    1.000
    Si4255   Si       0.71988    0.50123    0.20474    1.000
    N4256    N        0.72040    0.42031    0.16823    1.000
    Si4257   Si       0.70251    0.41013    0.13089    1.000
    N4258    N        0.73494    0.30486    0.30626    1.000
    Si4259   Si       0.72720    0.27072    0.27984    1.000
    Si4260   Si       0.74292    0.29765    0.34862    1.000
    Si4261   Si       0.74926    0.34184    0.28821    1.000
    N4262    N        0.72605    0.35065    0.25191    1.000
    N4263    N        0.70353    0.28765    0.24889    1.000
    N4264    N        0.75315    0.37417    0.31751    1.000
    Si4265   Si       0.71568    0.38800    0.33652    1.000
    Si4266   Si       0.71990    0.44025    0.25901    1.000
    Si4267   Si       0.71050    0.47247    0.32098    1.000
    N4268    N        0.74992    0.46501    0.33843    1.000
    N4269    N        0.69455    0.43076    0.33001    1.000
    N4270    N        0.72443    0.32511    0.37742    1.000
    Si4271   Si       0.74345    0.33120    0.41587    1.000
    Si4272   Si       0.72587    0.35171    0.48364    1.000
    N4273    N        0.71086    0.34600    0.44343    1.000
    Si4274   Si       0.75198    0.45225    0.45663    1.000
    N4275    N        0.72212    0.48463    0.44991    1.000
    N4276    N        0.72931    0.41522    0.44805    1.000
    Si4277   Si       0.74688    0.40231    0.41161    1.000
    N4278    N        0.71877    0.40004    0.37851    1.000
    Si4279   Si       0.74598    0.47486    0.38157    1.000
    N4280    N        0.70296    0.46900    0.38583    1.000
    N4281    N        0.73848    0.27252    0.55729    1.000
    N4282    N        0.72928    0.31994    0.51516    1.000
    Si4283   Si       0.70474    0.29921    0.54664    1.000
    N4284    N        0.73359    0.44466    0.63522    1.000
    N4285    N        0.69808    0.37882    0.50086    1.000
    Si4286   Si       0.71545    0.45865    0.53134    1.000
    N4287    N        0.74383    0.43900    0.55914    1.000
    N4288    N        0.72918    0.50204    0.52552    1.000
    N4289    N        0.73779    0.45755    0.69459    1.000
    Si4290   Si       0.73362    0.31745    0.70433    1.000
    N4291    N        0.74041    0.27972    0.72210    1.000
    N4292    N        0.74182    0.34706    0.73289    1.000
    N4293    N        0.73233    0.38235    0.66980    1.000
    Si4294   Si       0.73897    0.48864    0.72306    1.000
    Si4295   Si       0.71467    0.47357    0.66027    1.000
    Si4296   Si       0.74651    0.42311    0.66976    1.000
    N4297    N        0.69964    0.50639    0.72810    1.000
    N4298    N        0.69639    0.26368    0.66759    1.000
    Si4299   Si       0.72741    0.36630    0.82818    1.000
    Si4300   Si       0.71548    0.36748    0.75863    1.000
    Si4301   Si       0.73504    0.29428    0.83998    1.000
    N4302    N        0.71118    0.34533    0.79531    1.000
    N4303    N        0.73891    0.33416    0.85566    1.000
    N4304    N        0.69532    0.28634    0.82219    1.000
    N4305    N        0.69802    0.49039    0.92669    1.000
    N4306    N        0.74281    0.47152    0.76149    1.000
    N4307    N        0.72943    0.40545    0.77408    1.000
    Si4308   Si       0.70913    0.44312    0.76994    1.000
    N4309    N        0.74484    0.48435    0.83315    1.000
    Si4310   Si       0.70267    0.49088    0.82456    1.000
    N4311    N        0.73163    0.26938    0.87494    1.000
    N4312    N        0.72766    0.29463    0.94537    1.000
    N4313    N        0.72799    0.37667    0.97572    1.000
    N4314    N        0.74688    0.37638    0.90779    1.000
    Si4315   Si       0.75268    0.29332    0.98151    1.000
    N4316    N        0.74866    0.43497    0.94762    1.000
    N4317    N        0.73137    0.43919    0.88436    1.000
    Si4318   Si       0.71494    0.39842    0.88898    1.000
    Si4319   Si       0.73085    0.46343    0.92115    1.000
    N4320    N        0.75337    0.49283    0.97643    1.000
    Si4321   Si       0.75230    0.28042    0.91224    1.000
    N4322    N        0.72921    0.61753    0.04938    1.000
    N4323    N        0.71153    0.52422    0.10954    1.000
    N4324    N        0.73811    0.51625    0.03805    1.000
    Si4325   Si       0.73057    0.61053    0.00548    1.000
    Si4326   Si       0.70412    0.52233    0.06483    1.000
    N4327    N        0.69498    0.52486    0.23133    1.000
    N4328    N        0.71018    0.73729    0.02281    1.000
    Si4329   Si       0.73437    0.72956    0.05955    1.000
    N4330    N        0.70917    0.71545    0.09201    1.000
    N4331    N        0.72886    0.58313    0.22460    1.000
    Si4332   Si       0.71676    0.56038    0.13389    1.000
    N4333    N        0.75227    0.58217    0.14113    1.000
    Si4334   Si       0.69176    0.56224    0.21128    1.000
    Si4335   Si       0.73450    0.74411    0.12154    1.000
    N4336    N        0.73733    0.68026    0.20851    1.000
    N4337    N        0.72110    0.64822    0.14924    1.000
    Si4338   Si       0.70507    0.67222    0.23453    1.000
    Si4339   Si       0.72561    0.68739    0.16755    1.000
    N4340    N        0.75404    0.57196    0.00781    1.000
    Si4341   Si       0.72654    0.60192    0.26424    1.000
    N4342    N        0.72137    0.51571    0.31210    1.000
    N4343    N        0.69978    0.55624    0.36088    1.000
    Si4344   Si       0.74330    0.55058    0.37074    1.000
    N4345    N        0.69651    0.58554    0.29382    1.000
    Si4346   Si       0.70863    0.67246    0.34005    1.000
    N4347    N        0.70939    0.70527    0.31281    1.000
    Si4348   Si       0.74908    0.72279    0.29821    1.000
    N4349    N        0.75185    0.66060    0.33674    1.000
    N4350    N        0.70258    0.63928    0.26082    1.000
    Si4351   Si       0.72118    0.51202    0.48361    1.000
    N4352    N        0.75492    0.53484    0.46591    1.000
    N4353    N        0.74855    0.58716    0.38992    1.000
    N4354    N        0.69708    0.74837    0.48420    1.000
    Si4355   Si       0.73497    0.64469    0.47185    1.000
    N4356    N        0.73431    0.71444    0.43659    1.000
    N4357    N        0.70394    0.65525    0.44496    1.000
    Si4358   Si       0.72615    0.67712    0.41444    1.000
    Si4359   Si       0.69885    0.73938    0.44068    1.000
    N4360    N        0.70279    0.68629    0.38106    1.000
    N4361    N        0.75230    0.60550    0.45808    1.000
    Si4362   Si       0.70783    0.60161    0.52794    1.000
    N4363    N        0.73921    0.56909    0.52326    1.000
    N4364    N        0.73777    0.55031    0.59292    1.000
    Si4365   Si       0.74511    0.53555    0.55091    1.000
    N4366    N        0.70039    0.60753    0.57192    1.000
    N4367    N        0.72924    0.63655    0.51435    1.000
    N4368    N        0.72234    0.68052    0.59096    1.000
    Si4369   Si       0.71014    0.72433    0.58378    1.000
    N4370    N        0.71752    0.73521    0.54288    1.000
    N4371    N        0.72710    0.74395    0.61764    1.000
    Si4372   Si       0.69428    0.64493    0.59307    1.000
    N4373    N        0.73049    0.51296    0.65361    1.000
    N4374    N        0.70868    0.56995    0.67555    1.000
    Si4375   Si       0.73870    0.55466    0.70125    1.000
    N4376    N        0.72369    0.56760    0.74323    1.000
    N4377    N        0.73325    0.63934    0.69298    1.000
    N4378    N        0.75156    0.68855    0.74021    1.000
    Si4379   Si       0.73717    0.65310    0.65193    1.000
    Si4380   Si       0.72663    0.70277    0.70716    1.000
    N4381    N        0.73841    0.69558    0.66488    1.000
    Si4382   Si       0.69891    0.63933    0.71913    1.000
    N4383    N        0.72294    0.74661    0.70778    1.000
    N4384    N        0.70312    0.63165    0.63389    1.000
    Si4385   Si       0.69668    0.56747    0.59058    1.000
    N4386    N        0.72744    0.61106    0.85460    1.000
    Si4387   Si       0.71751    0.56114    0.82359    1.000
    N4388    N        0.70591    0.52594    0.79874    1.000
    N4389    N        0.71691    0.54906    0.86519    1.000
    Si4390   Si       0.72271    0.74195    0.98061    1.000
    N4391    N        0.71127    0.63831    0.76202    1.000
    Si4392   Si       0.73561    0.73185    0.79666    1.000
    N4393    N        0.72368    0.71548    0.83463    1.000
    Si4394   Si       0.75170    0.65489    0.76717    1.000
    N4395    N        0.69974    0.73626    0.77209    1.000
    Si4396   Si       0.73638    0.58285    0.88602    1.000
    N4397    N        0.71179    0.59879    0.91826    1.000
    Si4398   Si       0.74597    0.53642    0.97972    1.000
    N4399    N        0.70235    0.53581    0.98134    1.000
    Si4400   Si       0.71947    0.63538    0.94018    1.000
    N4401    N        0.73967    0.66426    0.91388    1.000
    N4402    N        0.74967    0.63473    0.97250    1.000
    Si4403   Si       0.71466    0.69837    0.91490    1.000
    N4404    N        0.70420    0.71078    0.95768    1.000
    N4405    N        0.73157    0.73565    0.90017    1.000
    N4406    N        0.75571    0.57965    0.80636    1.000
    Si4407   Si       0.75366    0.72830    0.86417    1.000
    Si4408   Si       0.69573    0.52028    0.89176    1.000
    Si4409   Si       0.71832    0.86366    0.03735    1.000
    N4410    N        0.73588    0.82792    0.05524    1.000
    N4411    N        0.73769    0.86941    0.99763    1.000
    N4412    N        0.73350    0.89767    0.05858    1.000
    N4413    N        0.72760    0.00200    0.09204    1.000
    Si4414   Si       0.72723    0.90642    0.10183    1.000
    Si4415   Si       0.74283    0.97870    0.00221    1.000
    Si4416   Si       0.74422    0.96922    0.11855    1.000
    N4417    N        0.69559    0.77261    0.12816    1.000
    Si4418   Si       0.70510    0.85957    0.14891    1.000
    N4419    N        0.74174    0.87433    0.12846    1.000
    Si4420   Si       0.71625    0.79041    0.16448    1.000
    N4421    N        0.72325    0.83061    0.17466    1.000
    N4422    N        0.70004    0.87252    0.23507    1.000
    Si4423   Si       0.71919    0.96119    0.18462    1.000
    Si4424   Si       0.73225    0.90081    0.23301    1.000
    N4425    N        0.70645    0.93017    0.21156    1.000
    N4426    N        0.71666    0.94668    0.14217    1.000
    Si4427   Si       0.75328    0.00621    0.05773    1.000
    N4428    N        0.74966    0.76371    0.08300    1.000
    N4429    N        0.72832    0.80410    0.31149    1.000
    Si4430   Si       0.72170    0.80765    0.35415    1.000
    N4431    N        0.72124    0.84885    0.36515    1.000
    Si4432   Si       0.70440    0.78266    0.28210    1.000
    Si4433   Si       0.72665    0.87396    0.33039    1.000
    N4434    N        0.74130    0.75821    0.27207    1.000
    Si4435   Si       0.71210    0.94747    0.35148    1.000
    N4436    N        0.73611    0.91748    0.33073    1.000
    N4437    N        0.71189    0.98792    0.33426    1.000
    N4438    N        0.70501    0.00090    0.26328    1.000
    N4439    N        0.75271    0.92191    0.26433    1.000
    Si4440   Si       0.70363    0.85885    0.40273    1.000
    N4441    N        0.72986    0.83695    0.43214    1.000
    Si4442   Si       0.73989    0.79625    0.42300    1.000
    N4443    N        0.74685    0.78539    0.38197    1.000
    N4444    N        0.72541    0.86616    0.49261    1.000
    N4445    N        0.69900    0.77892    0.42378    1.000
    Si4446   Si       0.75163    0.86483    0.45762    1.000
    N4447    N        0.74965    0.98614    0.49116    1.000
    Si4448   Si       0.72482    0.92443    0.42676    1.000
    N4449    N        0.70495    0.93111    0.46624    1.000
    N4450    N        0.73207    0.95188    0.39316    1.000
    N4451    N        0.71314    0.83504    0.55780    1.000
    Si4452   Si       0.71442    0.83055    0.51471    1.000
    N4453    N        0.74538    0.80070    0.50551    1.000
    Si4454   Si       0.75333    0.90378    0.68156    1.000
    N4455    N        0.72298    0.92912    0.52526    1.000
    N4456    N        0.74911    0.99988    0.60316    1.000
    Si4457   Si       0.70091    0.90158    0.49900    1.000
    Si4458   Si       0.72160    0.78805    0.62126    1.000
    N4459    N        0.70404    0.85760    0.62879    1.000
    N4460    N        0.72439    0.79959    0.66299    1.000
    Si4461   Si       0.71221    0.84061    0.66842    1.000
    N4462    N        0.73985    0.86438    0.69146    1.000
    Si4463   Si       0.74712    0.77813    0.69193    1.000
    N4464    N        0.71735    0.00738    0.66412    1.000
    N4465    N        0.73364    0.94077    0.69670    1.000
    N4466    N        0.74625    0.90749    0.63861    1.000
    Si4467   Si       0.70250    0.90313    0.63160    1.000
    Si4468   Si       0.70687    0.96570    0.67227    1.000
    N4469    N        0.69656    0.95092    0.63393    1.000
    Si4470   Si       0.73443    0.75825    0.50717    1.000
    Si4471   Si       0.71783    0.96010    0.49585    1.000
    Si4472   Si       0.71385    0.84825    0.82466    1.000
    N4473    N        0.74298    0.77503    0.79192    1.000
    N4474    N        0.75095    0.83275    0.83874    1.000
    Si4475   Si       0.69533    0.78264    0.78934    1.000
    N4476    N        0.71570    0.88587    0.80228    1.000
    N4477    N        0.74021    0.93388    0.76214    1.000
    N4478    N        0.71901    0.97536    0.81537    1.000
    Si4479   Si       0.70954    0.95941    0.77675    1.000
    N4480    N        0.70207    0.99431    0.75038    1.000
    Si4481   Si       0.75209    0.89488    0.78385    1.000
    Si4482   Si       0.70527    0.86689    0.96975    1.000
    N4483    N        0.72167    0.77988    0.95753    1.000
    N4484    N        0.73670    0.81094    0.89615    1.000
    Si4485   Si       0.74172    0.77525    0.91837    1.000
    N4486    N        0.71133    0.86610    0.92769    1.000
    Si4487   Si       0.69734    0.83229    0.90019    1.000
    N4488    N        0.70370    0.96538    0.98827    1.000
    N4489    N        0.70917    0.99769    0.92691    1.000
    N4490    N        0.71010    0.91024    0.87562    1.000
    N4491    N        0.74055    0.93195    0.93417    1.000
    Si4492   Si       0.73381    0.89748    0.90750    1.000
    Si4493   Si       0.70627    0.95781    0.94440    1.000
    N4494    N        0.76797    0.09764    0.09240    1.000
    Si4495   Si       0.76260    0.11251    0.05422    1.000
    Si4496   Si       0.80139    0.01913    0.11630    1.000
    N4497    N        0.76403    0.08331    0.02380    1.000
    N4498    N        0.79197    0.01643    0.07442    1.000
    Si4499   Si       0.81071    0.09008    0.09629    1.000
    N4500    N        0.79677    0.13809    0.04854    1.000
    N4501    N        0.79227    0.25107    0.06440    1.000
    Si4502   Si       0.78922    0.21704    0.09110    1.000
    Si4503   Si       0.79257    0.16957    0.01797    1.000
    N4504    N        0.75900    0.19659    0.01854    1.000
    Si4505   Si       0.75562    0.24009    0.04022    1.000
    N4506    N        0.79063    0.05622    0.19547    1.000
    Si4507   Si       0.79103    0.08332    0.16086    1.000
    N4508    N        0.75918    0.11550    0.22428    1.000
    Si4509   Si       0.75722    0.07230    0.21830    1.000
    N4510    N        0.80556    0.12243    0.17267    1.000
    N4511    N        0.81293    0.06196    0.12982    1.000
    Si4512   Si       0.75641    0.13613    0.18745    1.000
    N4513    N        0.75364    0.15764    0.13107    1.000
    Si4514   Si       0.80415    0.18647    0.22453    1.000
    N4515    N        0.77932    0.21856    0.13426    1.000
    N4516    N        0.77534    0.17438    0.19339    1.000
    Si4517   Si       0.78827    0.17912    0.15164    1.000
    N4518    N        0.80912    0.23009    0.21710    1.000
    Si4519   Si       0.77143    0.25314    0.22282    1.000
    N4520    N        0.76548    0.05361    0.25722    1.000
    Si4521   Si       0.78202    0.12684    0.33187    1.000
    N4522    N        0.76212    0.11364    0.29538    1.000
    N4523    N        0.77279    0.05363    0.36227    1.000
    Si4524   Si       0.78032    0.12924    0.25904    1.000
    Si4525   Si       0.75707    0.20314    0.27409    1.000
    N4526    N        0.78421    0.17235    0.26020    1.000
    Si4527   Si       0.79078    0.19697    0.33600    1.000
    N4528    N        0.75841    0.24621    0.26506    1.000
    Si4529   Si       0.79741    0.13792    0.49628    1.000
    N4530    N        0.79554    0.03012    0.47984    1.000
    N4531    N        0.79676    0.10075    0.47570    1.000
    Si4532   Si       0.78560    0.09968    0.43360    1.000
    Si4533   Si       0.75963    0.04461    0.40532    1.000
    N4534    N        0.80646    0.06459    0.41815    1.000
    Si4535   Si       0.79451    0.20071    0.48788    1.000
    N4536    N        0.79455    0.13724    0.41638    1.000
    N4537    N        0.76467    0.16758    0.49235    1.000
    N4538    N        0.78532    0.22128    0.44956    1.000
    Si4539   Si       0.76204    0.15888    0.39539    1.000
    N4540    N        0.77662    0.20117    0.38105    1.000
    Si4541   Si       0.80547    0.21592    0.41003    1.000
    Si4542   Si       0.81105    0.05862    0.34407    1.000
    N4543    N        0.81092    0.03894    0.30600    1.000
    Si4544   Si       0.81046    0.06328    0.26803    1.000
    Si4545   Si       0.79060    0.09761    0.55720    1.000
    N4546    N        0.80480    0.09815    0.59721    1.000
    Si4547   Si       0.76157    0.02440    0.51056    1.000
    N4548    N        0.80277    0.06114    0.53686    1.000
    N4549    N        0.79653    0.22928    0.66936    1.000
    N4550    N        0.77478    0.21706    0.52714    1.000
    N4551    N        0.78474    0.22620    0.59954    1.000
    Si4552   Si       0.80455    0.22292    0.56025    1.000
    Si4553   Si       0.75706    0.25766    0.51907    1.000
    N4554    N        0.75705    0.05822    0.63459    1.000
    N4555    N        0.79976    0.04756    0.70976    1.000
    N4556    N        0.80154    0.10817    0.66921    1.000
    Si4557   Si       0.79107    0.08175    0.63458    1.000
    N4558    N        0.77757    0.10695    0.73885    1.000
    Si4559   Si       0.77018    0.06501    0.73528    1.000
    Si4560   Si       0.77794    0.12872    0.70167    1.000
    Si4561   Si       0.76327    0.19987    0.74248    1.000
    Si4562   Si       0.76625    0.19802    0.68032    1.000
    N4563    N        0.78233    0.17069    0.71076    1.000
    Si4564   Si       0.77217    0.06366    0.80026    1.000
    N4565    N        0.76403    0.03525    0.76822    1.000
    N4566    N        0.80724    0.07954    0.86647    1.000
    N4567    N        0.75792    0.04146    0.83415    1.000
    Si4568   Si       0.76953    0.12962    0.77468    1.000
    N4569    N        0.79515    0.21990    0.83516    1.000
    N4570    N        0.76873    0.23488    0.76748    1.000
    Si4571   Si       0.76305    0.23705    0.81086    1.000
    N4572    N        0.80559    0.13985    0.79702    1.000
    Si4573   Si       0.79369    0.19365    0.86908    1.000
    Si4574   Si       0.78275    0.04464    0.87082    1.000
    Si4575   Si       0.79061    0.11874    0.87913    1.000
    N4576    N        0.80162    0.12763    0.91932    1.000
    Si4577   Si       0.78784    0.06858    0.99063    1.000
    N4578    N        0.81135    0.21487    0.96897    1.000
    N4579    N        0.77177    0.24480    0.92549    1.000
    Si4580   Si       0.81430    0.22950    0.92923    1.000
    Si4581   Si       0.76908    0.21800    0.97856    1.000
    N4582    N        0.78655    0.14614    0.98194    1.000
    N4583    N        0.76259    0.25626    0.99784    1.000
    N4584    N        0.81360    0.15364    0.86478    1.000
    N4585    N        0.77877    0.35019    0.01900    1.000
    Si4586   Si       0.79079    0.33895    0.05940    1.000
    N4587    N        0.76335    0.32426    0.09218    1.000
    N4588    N        0.79880    0.37742    0.07804    1.000
    Si4589   Si       0.78634    0.45361    0.05383    1.000
    N4590    N        0.78189    0.44400    0.09777    1.000
    Si4591   Si       0.77400    0.40053    0.10712    1.000
    N4592    N        0.79415    0.45176    0.00673    1.000
    Si4593   Si       0.79268    0.48567    0.10896    1.000
    N4594    N        0.80572    0.49213    0.06730    1.000
    Si4595   Si       0.77803    0.30988    0.13052    1.000
    N4596    N        0.78814    0.33731    0.16072    1.000
    N4597    N        0.76763    0.29683    0.21890    1.000
    Si4598   Si       0.79775    0.31445    0.19595    1.000
    Si4599   Si       0.80646    0.37769    0.18256    1.000
    N4600    N        0.77757    0.40273    0.21154    1.000
    N4601    N        0.78656    0.40391    0.14876    1.000
    Si4602   Si       0.76232    0.42547    0.17759    1.000
    N4603    N        0.78396    0.46216    0.16792    1.000
    Si4604   Si       0.78636    0.50643    0.17160    1.000
    N4605    N        0.78441    0.29781    0.34602    1.000
    N4606    N        0.79099    0.32706    0.28182    1.000
    Si4607   Si       0.81273    0.31714    0.31750    1.000
    Si4608   Si       0.81049    0.26295    0.34775    1.000
    Si4609   Si       0.79712    0.38855    0.31311    1.000
    N4610    N        0.79185    0.49378    0.29383    1.000
    Si4611   Si       0.77899    0.45553    0.30875    1.000
    N4612    N        0.80993    0.42810    0.32198    1.000
    N4613    N        0.76075    0.43680    0.27515    1.000
    N4614    N        0.80865    0.38846    0.26994    1.000
    Si4615   Si       0.79115    0.42204    0.24758    1.000
    N4616    N        0.76886    0.35513    0.48251    1.000
    N4617    N        0.77028    0.36503    0.40867    1.000
    Si4618   Si       0.81032    0.37833    0.41653    1.000
    N4619    N        0.75953    0.29257    0.43276    1.000
    N4620    N        0.78765    0.47591    0.44784    1.000
    Si4621   Si       0.80609    0.44413    0.41834    1.000
    Si4622   Si       0.80137    0.38400    0.48489    1.000
    N4623    N        0.80172    0.41030    0.45011    1.000
    N4624    N        0.76493    0.44267    0.40090    1.000
    N4625    N        0.79679    0.32816    0.54738    1.000
    N4626    N        0.77977    0.29402    0.60692    1.000
    Si4627   Si       0.77315    0.32076    0.51164    1.000
    Si4628   Si       0.80874    0.29860    0.57611    1.000
    N4629    N        0.78854    0.28220    0.50084    1.000
    Si4630   Si       0.77813    0.43729    0.53328    1.000
    N4631    N        0.76683    0.48936    0.59730    1.000
    Si4632   Si       0.80185    0.49714    0.57259    1.000
    N4633    N        0.79542    0.39798    0.52618    1.000
    N4634    N        0.79085    0.42289    0.60544    1.000
    N4635    N        0.80879    0.46816    0.54133    1.000
    Si4636   Si       0.75597    0.44741    0.59946    1.000
    N4637    N        0.79712    0.35823    0.63222    1.000
    Si4638   Si       0.79291    0.31455    0.64178    1.000
    N4639    N        0.78703    0.41086    0.67656    1.000
    Si4640   Si       0.78399    0.34728    0.73864    1.000
    N4641    N        0.76081    0.32275    0.67152    1.000
    Si4642   Si       0.77669    0.36526    0.67251    1.000
    Si4643   Si       0.75506    0.25972    0.59604    1.000
    N4644    N        0.75330    0.44590    0.49908    1.000
    Si4645   Si       0.77674    0.27247    0.74560    1.000
    N4646    N        0.78780    0.31217    0.76204    1.000
    N4647    N        0.76802    0.28050    0.81797    1.000
    Si4648   Si       0.80448    0.29686    0.80255    1.000
    N4649    N        0.76897    0.38093    0.82018    1.000
    Si4650   Si       0.80984    0.36963    0.83035    1.000
    Si4651   Si       0.81148    0.30075    0.92949    1.000
    N4652    N        0.79520    0.38744    0.75570    1.000
    Si4653   Si       0.76703    0.47998    0.79614    1.000
    N4654    N        0.78662    0.44372    0.80043    1.000
    Si4655   Si       0.77128    0.40556    0.78560    1.000
    N4656    N        0.80322    0.45394    0.86294    1.000
    Si4657   Si       0.76153    0.46513    0.86813    1.000
    N4658    N        0.80733    0.36621    0.87433    1.000
    Si4659   Si       0.76922    0.34875    0.88291    1.000
    N4660    N        0.79120    0.31054    0.96627    1.000
    N4661    N        0.78167    0.30940    0.89882    1.000
    Si4662   Si       0.80730    0.34824    0.98480    1.000
    N4663    N        0.75975    0.49170    0.90371    1.000
    N4664    N        0.80081    0.38629    0.96269    1.000
    Si4665   Si       0.78086    0.45964    0.96572    1.000
    Si4666   Si       0.75881    0.39302    0.94985    1.000
    N4667    N        0.77611    0.57276    0.07750    1.000
    Si4668   Si       0.76707    0.61479    0.07105    1.000
    Si4669   Si       0.76852    0.54899    0.04203    1.000
    N4670    N        0.81008    0.54623    0.02200    1.000
    Si4671   Si       0.78543    0.56245    0.12120    1.000
    N4672    N        0.77687    0.73638    0.21629    1.000
    N4673    N        0.79894    0.63893    0.04871    1.000
    N4674    N        0.76624    0.64513    0.10193    1.000
    Si4675   Si       0.78845    0.67371    0.07283    1.000
    N4676    N        0.76632    0.69986    0.04912    1.000
    Si4677   Si       0.77753    0.70238    0.00684    1.000
    N4678    N        0.75882    0.52083    0.20207    1.000
    N4679    N        0.77948    0.52118    0.13043    1.000
    N4680    N        0.79864    0.57613    0.20683    1.000
    Si4681   Si       0.76378    0.55762    0.22615    1.000
    Si4682   Si       0.75555    0.62570    0.13954    1.000
    Si4683   Si       0.79280    0.67859    0.14082    1.000
    Si4684   Si       0.77564    0.69470    0.23069    1.000
    N4685    N        0.78893    0.64062    0.16143    1.000
    N4686    N        0.75909    0.71088    0.14243    1.000
    Si4687   Si       0.78008    0.73633    0.17188    1.000
    N4688    N        0.81364    0.67323    0.23550    1.000
    Si4689   Si       0.78314    0.57911    0.29923    1.000
    N4690    N        0.76853    0.55505    0.33226    1.000
    N4691    N        0.76763    0.55109    0.26835    1.000
    Si4692   Si       0.76331    0.52451    0.30287    1.000
    N4693    N        0.76128    0.61440    0.28543    1.000
    Si4694   Si       0.76982    0.65480    0.29726    1.000
    N4695    N        0.77171    0.74867    0.32846    1.000
    N4696    N        0.76205    0.68986    0.27384    1.000
    Si4697   Si       0.78236    0.65578    0.36647    1.000
    N4698    N        0.80543    0.69478    0.36913    1.000
    Si4699   Si       0.76800    0.61286    0.41840    1.000
    Si4700   Si       0.76352    0.57224    0.48587    1.000
    Si4701   Si       0.77713    0.51512    0.43323    1.000
    N4702    N        0.80811    0.57270    0.48908    1.000
    N4703    N        0.75741    0.51521    0.39285    1.000
    N4704    N        0.81021    0.60355    0.42357    1.000
    Si4705   Si       0.77223    0.71104    0.46323    1.000
    N4706    N        0.76729    0.67203    0.48034    1.000
    N4707    N        0.76178    0.65417    0.40493    1.000
    N4708    N        0.80580    0.72069    0.43457    1.000
    N4709    N        0.78944    0.53160    0.54611    1.000
    N4710    N        0.79490    0.62468    0.53157    1.000
    Si4711   Si       0.75738    0.52481    0.62246    1.000
    N4712    N        0.76940    0.73612    0.50056    1.000
    Si4713   Si       0.76845    0.65468    0.52292    1.000
    Si4714   Si       0.78912    0.72434    0.53712    1.000
    N4715    N        0.77385    0.68668    0.55096    1.000
    Si4716   Si       0.76668    0.67498    0.59346    1.000
    N4717    N        0.78580    0.70830    0.61656    1.000
    N4718    N        0.77016    0.58378    0.69270    1.000
    N4719    N        0.79523    0.53214    0.63973    1.000
    N4720    N        0.76534    0.52228    0.71592    1.000
    Si4721   Si       0.80363    0.56414    0.66976    1.000
    Si4722   Si       0.77175    0.62405    0.70533    1.000
    Si4723   Si       0.80578    0.53276    0.72965    1.000
    N4724    N        0.79575    0.75093    0.73963    1.000
    Si4725   Si       0.80591    0.63664    0.64207    1.000
    N4726    N        0.76873    0.64367    0.62341    1.000
    Si4727   Si       0.75798    0.72745    0.64391    1.000
    N4728    N        0.80069    0.64600    0.68259    1.000
    Si4729   Si       0.79230    0.55386    0.80312    1.000
    N4730    N        0.79916    0.56736    0.76039    1.000
    Si4731   Si       0.76220    0.61647    0.82843    1.000
    N4732    N        0.79024    0.62345    0.86202    1.000
    N4733    N        0.79546    0.51257    0.79521    1.000
    Si4734   Si       0.75747    0.58374    0.76109    1.000
    N4735    N        0.77772    0.62330    0.74860    1.000
    Si4736   Si       0.77832    0.65616    0.89129    1.000
    N4737    N        0.76600    0.65306    0.80650    1.000
    Si4738   Si       0.78998    0.68610    0.82177    1.000
    N4739    N        0.77588    0.71611    0.79338    1.000
    N4740    N        0.77929    0.69151    0.86515    1.000
    Si4741   Si       0.78673    0.70977    0.75093    1.000
    Si4742   Si       0.79087    0.64036    0.96270    1.000
    Si4743   Si       0.80967    0.58556    0.87337    1.000
    N4744    N        0.78022    0.54704    0.95461    1.000
    Si4745   Si       0.78288    0.52969    0.91460    1.000
    N4746    N        0.77430    0.56537    0.88971    1.000
    Si4747   Si       0.79639    0.56842    0.98773    1.000
    N4748    N        0.81047    0.60963    0.98706    1.000
    Si4749   Si       0.79864    0.75222    0.95895    1.000
    N4750    N        0.80189    0.67702    0.98396    1.000
    N4751    N        0.80705    0.64681    0.92180    1.000
    N4752    N        0.76616    0.73661    0.98392    1.000
    N4753    N        0.78097    0.81629    0.10704    1.000
    Si4754   Si       0.76573    0.80056    0.06957    1.000
    N4755    N        0.79920    0.80450    0.04370    1.000
    Si4756   Si       0.78004    0.88274    0.99803    1.000
    N4757    N        0.79573    0.90454    0.03648    1.000
    Si4758   Si       0.76665    0.92613    0.05773    1.000
    N4759    N        0.76359    0.93313    0.10102    1.000
    Si4760   Si       0.80622    0.92692    0.11625    1.000
    Si4761   Si       0.77083    0.95736    0.24450    1.000
    N4762    N        0.75582    0.96387    0.04007    1.000
    Si4763   Si       0.77991    0.85590    0.12798    1.000
    Si4764   Si       0.78985    0.79545    0.14588    1.000
    N4765    N        0.79147    0.83512    0.16786    1.000
    N4766    N        0.77212    0.81061    0.22518    1.000
    Si4767   Si       0.77143    0.76989    0.24214    1.000
    Si4768   Si       0.75863    0.84120    0.19695    1.000
    N4769    N        0.76323    0.88220    0.21163    1.000
    N4770    N        0.75423    0.77050    0.15615    1.000
    N4771    N        0.77551    0.99183    0.13984    1.000
    Si4772   Si       0.80120    0.89480    0.22692    1.000
    N4773    N        0.75754    0.96901    0.20368    1.000
    N4774    N        0.80839    0.93688    0.23305    1.000
    Si4775   Si       0.79300    0.97288    0.17506    1.000
    N4776    N        0.81285    0.93787    0.15914    1.000
    Si4777   Si       0.76865    0.78665    0.30391    1.000
    N4778    N        0.78859    0.80784    0.33790    1.000
    Si4779   Si       0.79714    0.84934    0.33795    1.000
    N4780    N        0.80141    0.78367    0.27375    1.000
    Si4781   Si       0.78212    0.77117    0.36272    1.000
    N4782    N        0.76580    0.86772    0.31158    1.000
    N4783    N        0.81111    0.86211    0.25635    1.000
    Si4784   Si       0.80878    0.81936    0.24673    1.000
    Si4785   Si       0.76939    0.91101    0.30315    1.000
    N4786    N        0.77501    0.98783    0.27693    1.000
    Si4787   Si       0.79941    0.99880    0.31184    1.000
    N4788    N        0.77545    0.99244    0.34829    1.000
    N4789    N        0.81280    0.91019    0.31199    1.000
    N4790    N        0.79286    0.87059    0.37404    1.000
    N4791    N        0.78921    0.84640    0.46434    1.000
    N4792    N        0.77573    0.78112    0.44507    1.000
    Si4793   Si       0.78313    0.80575    0.48030    1.000
    Si4794   Si       0.80264    0.00269    0.44871    1.000
    N4795    N        0.77392    0.00451    0.41592    1.000
    N4796    N        0.79683    0.94032    0.37868    1.000
    Si4797   Si       0.76960    0.97356    0.38572    1.000
    Si4798   Si       0.79016    0.90393    0.39974    1.000
    N4799    N        0.75992    0.90147    0.43399    1.000
    Si4800   Si       0.81352    0.76296    0.43200    1.000
    Si4801   Si       0.79448    0.79549    0.58575    1.000
    N4802    N        0.79952    0.83397    0.56600    1.000
    N4803    N        0.79580    0.76438    0.55463    1.000
    N4804    N        0.75520    0.80924    0.60127    1.000
    N4805    N        0.75693    0.88287    0.57258    1.000
    Si4806   Si       0.78919    0.96762    0.50453    1.000
    N4807    N        0.77721    0.94132    0.58269    1.000
    Si4808   Si       0.78322    0.98332    0.57981    1.000
    Si4809   Si       0.77511    0.90418    0.60625    1.000
    N4810    N        0.79057    0.92792    0.51958    1.000
    N4811    N        0.79091    0.99636    0.53762    1.000
    Si4812   Si       0.75790    0.91996    0.54693    1.000
    Si4813   Si       0.76749    0.84466    0.71939    1.000
    N4814    N        0.75654    0.80463    0.72646    1.000
    N4815    N        0.80906    0.84566    0.70850    1.000
    N4816    N        0.77484    0.98670    0.72674    1.000
    Si4817   Si       0.80070    0.00656    0.69748    1.000
    N4818    N        0.78545    0.99749    0.65930    1.000
    Si4819   Si       0.76751    0.94368    0.72919    1.000
    N4820    N        0.78915    0.91394    0.70374    1.000
    Si4821   Si       0.75468    0.84182    0.57239    1.000
    N4822    N        0.77893    0.75881    0.66766    1.000
    Si4823   Si       0.77037    0.79400    0.82274    1.000
    N4824    N        0.80123    0.80374    0.79394    1.000
    Si4825   Si       0.77809    0.78689    0.76018    1.000
    N4826    N        0.76586    0.86446    0.75858    1.000
    N4827    N        0.77862    0.76325    0.85290    1.000
    N4828    N        0.77896    0.90718    0.81541    1.000
    N4829    N        0.78516    0.98449    0.80944    1.000
    Si4830   Si       0.79215    0.90407    0.85661    1.000
    Si4831   Si       0.79094    0.99483    0.76862    1.000
    N4832    N        0.80409    0.94727    0.76484    1.000
    Si4833   Si       0.80448    0.94378    0.81130    1.000
    N4834    N        0.80491    0.94436    0.85673    1.000
    Si4835   Si       0.75190    0.99667    0.83325    1.000
    Si4836   Si       0.76666    0.83862    0.87814    1.000
    N4837    N        0.80404    0.81855    0.88020    1.000
    N4838    N        0.78311    0.76750    0.92317    1.000
    Si4839   Si       0.80634    0.77448    0.88671    1.000
    N4840    N        0.76719    0.88249    0.88541    1.000
    N4841    N        0.80605    0.84908    0.98746    1.000
    N4842    N        0.77417    0.97958    0.97221    1.000
    N4843    N        0.79792    0.90653    0.96539    1.000
    Si4844   Si       0.80313    0.97917    0.88215    1.000
    N4845    N        0.76221    0.99159    0.87569    1.000
    Si4846   Si       0.78020    0.94320    0.94776    1.000
    N4847    N        0.81053    0.96323    0.92133    1.000
    Si4848   Si       0.80978    0.00318    0.97137    1.000
    N4849    N        0.83130    0.06905    0.06548    1.000
    Si4850   Si       0.82649    0.02943    0.04825    1.000
    N4851    N        0.83280    0.12748    0.10465    1.000
    N4852    N        0.86867    0.13010    0.05320    1.000
    Si4853   Si       0.87070    0.08775    0.05834    1.000
    N4854    N        0.81319    0.03422    0.00517    1.000
    Si4855   Si       0.84508    0.25606    0.21396    1.000
    Si4856   Si       0.83044    0.15471    0.06810    1.000
    N4857    N        0.82765    0.19398    0.08746    1.000
    N4858    N        0.83116    0.18859    0.02695    1.000
    Si4859   Si       0.84994    0.21967    0.05292    1.000
    N4860    N        0.85658    0.24637    0.01481    1.000
    N4861    N        0.85787    0.25460    0.08301    1.000
    Si4862   Si       0.85955    0.19343    0.12105    1.000
    Si4863   Si       0.85794    0.04841    0.13075    1.000
    N4864    N        0.85686    0.05214    0.17631    1.000
    Si4865   Si       0.82762    0.03475    0.20248    1.000
    N4866    N        0.84127    0.04521    0.24215    1.000
    N4867    N        0.83204    0.18024    0.15465    1.000
    Si4868   Si       0.83908    0.14716    0.18224    1.000
    N4869    N        0.83910    0.16038    0.22387    1.000
    N4870    N        0.81828    0.09956    0.33418    1.000
    N4871    N        0.81796    0.10761    0.26261    1.000
    N4872    N        0.84481    0.04149    0.36657    1.000
    Si4873   Si       0.86099    0.19118    0.49180    1.000
    N4874    N        0.82040    0.25179    0.38746    1.000
    N4875    N        0.84013    0.19136    0.41820    1.000
    Si4876   Si       0.84432    0.13368    0.32877    1.000
    Si4877   Si       0.85207    0.13404    0.25741    1.000
    Si4878   Si       0.84887    0.24909    0.29553    1.000
    N4879    N        0.86648    0.15320    0.29494    1.000
    N4880    N        0.81455    0.22994    0.31862    1.000
    N4881    N        0.85639    0.06706    0.48759    1.000
    Si4882   Si       0.84446    0.04760    0.40998    1.000
    N4883    N        0.86388    0.12517    0.43303    1.000
    N4884    N        0.84159    0.00958    0.43032    1.000
    Si4885   Si       0.83026    0.15293    0.43508    1.000
    N4886    N        0.82706    0.16379    0.47728    1.000
    N4887    N        0.81167    0.16098    0.33724    1.000
    Si4888   Si       0.81381    0.06651    0.49455    1.000
    Si4889   Si       0.84798    0.09584    0.60133    1.000
    Si4890   Si       0.82200    0.02394    0.55197    1.000
    N4891    N        0.85837    0.05729    0.58387    1.000
    N4892    N        0.85849    0.01292    0.53197    1.000
    Si4893   Si       0.84526    0.03076    0.61586    1.000
    Si4894   Si       0.86506    0.15528    0.64878    1.000
    Si4895   Si       0.84615    0.15395    0.54994    1.000
    N4896    N        0.83517    0.19313    0.56457    1.000
    Si4897   Si       0.86183    0.20091    0.59715    1.000
    N4898    N        0.85103    0.24052    0.61831    1.000
    N4899    N        0.83118    0.22295    0.49863    1.000
    N4900    N        0.86108    0.11340    0.64167    1.000
    N4901    N        0.82811    0.05719    0.64351    1.000
    Si4902   Si       0.84125    0.08928    0.67147    1.000
    N4903    N        0.86681    0.09548    0.70688    1.000
    Si4904   Si       0.81504    0.22074    0.63227    1.000
    N4905    N        0.86181    0.24178    0.68241    1.000
    N4906    N        0.85947    0.21282    0.74504    1.000
    N4907    N        0.83713    0.18287    0.63025    1.000
    N4908    N        0.81050    0.13091    0.53613    1.000
    Si4909   Si       0.84599    0.04652    0.78650    1.000
    Si4910   Si       0.84029    0.11187    0.78103    1.000
    Si4911   Si       0.84235    0.05464    0.86545    1.000
    N4912    N        0.86127    0.11912    0.82154    1.000
    N4913    N        0.86190    0.04896    0.82760    1.000
    N4914    N        0.83086    0.01304    0.76551    1.000
    N4915    N        0.81303    0.07472    0.78755    1.000
    Si4916   Si       0.83633    0.22932    0.82400    1.000
    N4917    N        0.84951    0.18985    0.81031    1.000
    Si4918   Si       0.83351    0.15234    0.82705    1.000
    N4919    N        0.85706    0.14289    0.75682    1.000
    N4920    N        0.86375    0.23982    0.85526    1.000
    Si4921   Si       0.84808    0.25306    0.75592    1.000
    N4922    N        0.82649    0.20171    0.89789    1.000
    N4923    N        0.81819    0.01869    0.87740    1.000
    N4924    N        0.82242    0.09006    0.97748    1.000
    Si4925   Si       0.84895    0.05468    0.98336    1.000
    N4926    N        0.83203    0.03111    0.94599    1.000
    Si4927   Si       0.81860    0.12762    0.95949    1.000
    Si4928   Si       0.84700    0.21047    0.99255    1.000
    Si4929   Si       0.86777    0.20976    0.88754    1.000
    Si4930   Si       0.83555    0.15893    0.90845    1.000
    N4931    N        0.85244    0.14951    0.94748    1.000
    Si4932   Si       0.87049    0.03175    0.92394    1.000
    Si4933   Si       0.86100    0.33220    0.03393    1.000
    N4934    N        0.82654    0.31524    0.05459    1.000
    Si4935   Si       0.82213    0.27918    0.07907    1.000
    N4936    N        0.81892    0.29535    0.11955    1.000
    N4937    N        0.87082    0.36909    0.05445    1.000
    Si4938   Si       0.83982    0.39305    0.07287    1.000
    Si4939   Si       0.83764    0.44642    0.01284    1.000
    N4940    N        0.83081    0.43256    0.05470    1.000
    Si4941   Si       0.84405    0.45177    0.09211    1.000
    N4942    N        0.84966    0.48813    0.01250    1.000
    N4943    N        0.84472    0.41203    0.11347    1.000
    Si4944   Si       0.84503    0.30998    0.15029    1.000
    N4945    N        0.83084    0.28893    0.18566    1.000
    N4946    N        0.85930    0.35061    0.14159    1.000
    N4947    N        0.81679    0.34872    0.21413    1.000
    Si4948   Si       0.85577    0.49701    0.15604    1.000
    Si4949   Si       0.81761    0.43537    0.14876    1.000
    Si4950   Si       0.85393    0.43746    0.21104    1.000
    Si4951   Si       0.86950    0.39390    0.14430    1.000
    N4952    N        0.82125    0.45185    0.23613    1.000
    N4953    N        0.83284    0.47323    0.12735    1.000
    N4954    N        0.84131    0.41040    0.18036    1.000
    N4955    N        0.84356    0.28501    0.32454    1.000
    N4956    N        0.85828    0.33790    0.27128    1.000
    N4957    N        0.82443    0.35803    0.32673    1.000
    N4958    N        0.85030    0.26971    0.25598    1.000
    Si4959   Si       0.86356    0.35910    0.30746    1.000
    Si4960   Si       0.81975    0.34858    0.25705    1.000
    Si4961   Si       0.85231    0.43557    0.31701    1.000
    N4962    N        0.85721    0.46480    0.28623    1.000
    Si4963   Si       0.82675    0.48769    0.26457    1.000
    N4964    N        0.87077    0.45515    0.35163    1.000
    N4965    N        0.84702    0.36031    0.42976    1.000
    N4966    N        0.83172    0.27642    0.44933    1.000
    Si4967   Si       0.84838    0.27375    0.41073    1.000
    Si4968   Si       0.86575    0.36149    0.46870    1.000
    Si4969   Si       0.82740    0.26523    0.49089    1.000
    N4970    N        0.86473    0.30695    0.38769    1.000
    Si4971   Si       0.85913    0.43462    0.38738    1.000
    N4972    N        0.84358    0.46735    0.41230    1.000
    N4973    N        0.82424    0.41186    0.39207    1.000
    N4974    N        0.85148    0.30912    0.58562    1.000
    Si4975   Si       0.86287    0.27878    0.55601    1.000
    N4976    N        0.86252    0.28140    0.51302    1.000
    N4977    N        0.82301    0.26164    0.55739    1.000
    N4978    N        0.83644    0.36222    0.49941    1.000
    Si4979   Si       0.81896    0.36378    0.54115    1.000
    N4980    N        0.83561    0.37698    0.57942    1.000
    Si4981   Si       0.84956    0.47340    0.52498    1.000
    N4982    N        0.83522    0.49885    0.59705    1.000
    Si4983   Si       0.81750    0.39153    0.61586    1.000
    N4984    N        0.86284    0.44437    0.49840    1.000
    Si4985   Si       0.84617    0.33300    0.68360    1.000
    N4986    N        0.82660    0.29887    0.66490    1.000
    N4987    N        0.86777    0.34944    0.64987    1.000
    N4988    N        0.81729    0.26591    0.72821    1.000
    Si4989   Si       0.82166    0.26040    0.68517    1.000
    Si4990   Si       0.82862    0.39231    0.72890    1.000
    N4991    N        0.82987    0.49802    0.73995    1.000
    N4992    N        0.83895    0.43171    0.71350    1.000
    Si4993   Si       0.85190    0.47547    0.70887    1.000
    N4994    N        0.83071    0.47660    0.66757    1.000
    N4995    N        0.84556    0.41118    0.64373    1.000
    Si4996   Si       0.82373    0.43345    0.67290    1.000
    N4997    N        0.81342    0.35626    0.70369    1.000
    N4998    N        0.82786    0.33097    0.81556    1.000
    N4999    N        0.83055    0.26192    0.79550    1.000
    N5000    N        0.86355    0.38473    0.75242    1.000
    N5001    N        0.84949    0.47070    0.80714    1.000
    N5002    N        0.83755    0.40121    0.81881    1.000
    Si5003   Si       0.82196    0.44300    0.82533    1.000
    Si5004   Si       0.83563    0.50311    0.78129    1.000
    N5005    N        0.84425    0.33305    0.92818    1.000
    Si5006   Si       0.84086    0.36391    0.89822    1.000
    N5007    N        0.83801    0.26593    0.92485    1.000
    N5008    N        0.81421    0.45280    0.93740    1.000
    N5009    N        0.85055    0.34026    0.99297    1.000
    N5010    N        0.86638    0.46460    0.88807    1.000
    N5011    N        0.85876    0.42506    0.98288    1.000
    Si5012   Si       0.83243    0.41380    0.95134    1.000
    N5013    N        0.85268    0.40286    0.91478    1.000
    Si5014   Si       0.82400    0.46820    0.89937    1.000
    N5015    N        0.86063    0.60125    0.04206    1.000
    Si5016   Si       0.83285    0.51617    0.04156    1.000
    N5017    N        0.86380    0.53309    0.06700    1.000
    Si5018   Si       0.83117    0.62593    0.02163    1.000
    Si5019   Si       0.85524    0.70166    0.09882    1.000
    N5020    N        0.85900    0.72154    0.00367    1.000
    N5021    N        0.85933    0.65587    0.00680    1.000
    N5022    N        0.86995    0.67278    0.06754    1.000
    N5023    N        0.81336    0.69024    0.10383    1.000
    N5024    N        0.82699    0.52083    0.18144    1.000
    Si5025   Si       0.83152    0.54856    0.21438    1.000
    N5026    N        0.86541    0.57609    0.22957    1.000
    N5027    N        0.84447    0.62912    0.19087    1.000
    N5028    N        0.82057    0.58344    0.13717    1.000
    Si5029   Si       0.81320    0.60479    0.17527    1.000
    Si5030   Si       0.84417    0.73235    0.16664    1.000
    Si5031   Si       0.83622    0.66991    0.19847    1.000
    N5032    N        0.81565    0.70030    0.17292    1.000
    N5033    N        0.82724    0.58845    0.29857    1.000
    Si5034   Si       0.83426    0.62185    0.32372    1.000
    Si5035   Si       0.85340    0.56403    0.27301    1.000
    N5036    N        0.83567    0.52791    0.25159    1.000
    N5037    N        0.81557    0.62775    0.36349    1.000
    Si5038   Si       0.83378    0.67820    0.27087    1.000
    N5039    N        0.82998    0.71692    0.29114    1.000
    Si5040   Si       0.82825    0.69438    0.33115    1.000
    N5041    N        0.81519    0.65777    0.30711    1.000
    N5042    N        0.87107    0.69014    0.34071    1.000
    N5043    N        0.81752    0.53304    0.42610    1.000
    N5044    N        0.86640    0.56605    0.45544    1.000
    Si5045   Si       0.82436    0.57065    0.44905    1.000
    Si5046   Si       0.83824    0.62439    0.39972    1.000
    Si5047   Si       0.85427    0.51114    0.41607    1.000
    N5048    N        0.87328    0.59864    0.39207    1.000
    Si5049   Si       0.86853    0.66094    0.45759    1.000
    N5050    N        0.86779    0.72566    0.39525    1.000
    N5051    N        0.84269    0.66161    0.41890    1.000
    N5052    N        0.84832    0.63223    0.48330    1.000
    Si5053   Si       0.83053    0.69991    0.40428    1.000
    N5054    N        0.84811    0.57629    0.53714    1.000
    Si5055   Si       0.82855    0.60628    0.51206    1.000
    Si5056   Si       0.82172    0.54529    0.52169    1.000
    N5057    N        0.84938    0.51451    0.50796    1.000
    N5058    N        0.85061    0.72055    0.58852    1.000
    N5059    N        0.83245    0.72234    0.52644    1.000
    Si5060   Si       0.86165    0.70357    0.55159    1.000
    N5061    N        0.83785    0.66166    0.62420    1.000
    N5062    N        0.81808    0.59509    0.64435    1.000
    N5063    N        0.83101    0.55202    0.70026    1.000
    N5064    N        0.84365    0.61417    0.72369    1.000
    Si5065   Si       0.85942    0.57836    0.63583    1.000
    Si5066   Si       0.86473    0.58110    0.70489    1.000
    N5067    N        0.86409    0.53446    0.64124    1.000
    Si5068   Si       0.83070    0.50772    0.63733    1.000
    Si5069   Si       0.82892    0.70228    0.62094    1.000
    Si5070   Si       0.83248    0.65670    0.70998    1.000
    Si5071   Si       0.84080    0.75445    0.73874    1.000
    N5072    N        0.83803    0.72768    0.65289    1.000
    N5073    N        0.86673    0.67787    0.69429    1.000
    N5074    N        0.87372    0.59957    0.60050    1.000
    N5075    N        0.81714    0.68172    0.74261    1.000
    N5076    N        0.84763    0.61110    0.78870    1.000
    N5077    N        0.85710    0.54133    0.78813    1.000
    Si5078   Si       0.85706    0.57649    0.81281    1.000
    Si5079   Si       0.81910    0.60639    0.75754    1.000
    N5080    N        0.81888    0.57027    0.83295    1.000
    N5081    N        0.83181    0.68349    0.81552    1.000
    Si5082   Si       0.84691    0.69045    0.77393    1.000
    N5083    N        0.85363    0.73203    0.77359    1.000
    Si5084   Si       0.86284    0.68946    0.84308    1.000
    Si5085   Si       0.84308    0.68880    0.97796    1.000
    N5086    N        0.84239    0.57894    0.90003    1.000
    Si5087   Si       0.85512    0.53777    0.90486    1.000
    N5088    N        0.82030    0.51234    0.90288    1.000
    N5089    N        0.87006    0.53288    0.94492    1.000
    N5090    N        0.86752    0.67030    0.94845    1.000
    N5091    N        0.83756    0.73038    0.94568    1.000
    Si5092   Si       0.84740    0.65960    0.91123    1.000
    N5093    N        0.85173    0.69562    0.88580    1.000
    Si5094   Si       0.85976    0.72962    0.90798    1.000
    N5095    N        0.85618    0.87520    0.04748    1.000
    Si5096   Si       0.82344    0.81510    0.00973    1.000
    N5097    N        0.86596    0.81626    0.02005    1.000
    N5098    N        0.81206    0.88207    0.11743    1.000
    Si5099   Si       0.83489    0.91406    0.05112    1.000
    N5100    N        0.83171    0.94342    0.08468    1.000
    Si5101   Si       0.86026    0.97897    0.08644    1.000
    N5102    N        0.85823    0.99868    0.04762    1.000
    N5103    N        0.86435    0.93234    0.02662    1.000
    Si5104   Si       0.86937    0.97147    0.01358    1.000
    Si5105   Si       0.85389    0.87317    0.12430    1.000
    N5106    N        0.84222    0.81374    0.21857    1.000
    Si5107   Si       0.83296    0.84208    0.18547    1.000
    N5108    N        0.85539    0.83702    0.14945    1.000
    N5109    N        0.81405    0.76134    0.15624    1.000
    N5110    N        0.83178    0.88362    0.19527    1.000
    Si5111   Si       0.84277    0.96238    0.22803    1.000
    N5112    N        0.82233    0.99264    0.20099    1.000
    Si5113   Si       0.84748    0.91784    0.17866    1.000
    Si5114   Si       0.87299    0.78654    0.22982    1.000
    N5115    N        0.87211    0.90976    0.14175    1.000
    N5116    N        0.84319    0.00878    0.11563    1.000
    N5117    N        0.86838    0.75347    0.19621    1.000
    N5118    N        0.83853    0.84824    0.32051    1.000
    N5119    N        0.85315    0.77286    0.32868    1.000
    Si5120   Si       0.83472    0.75899    0.29122    1.000
    Si5121   Si       0.86517    0.81778    0.33331    1.000
    Si5122   Si       0.83371    0.87735    0.28984    1.000
    N5123    N        0.83322    0.97518    0.32014    1.000
    Si5124   Si       0.82294    0.93997    0.34407    1.000
    N5125    N        0.86010    0.92783    0.36042    1.000
    N5126    N        0.86304    0.98193    0.26147    1.000
    N5127    N        0.86851    0.89626    0.27316    1.000
    Si5128   Si       0.84331    0.93667    0.46537    1.000
    Si5129   Si       0.85830    0.76908    0.37150    1.000
    Si5130   Si       0.85633    0.80347    0.47182    1.000
    N5131    N        0.85095    0.83598    0.44205    1.000
    Si5132   Si       0.82375    0.86998    0.45254    1.000
    N5133    N        0.85536    0.76786    0.44625    1.000
    N5134    N        0.81710    0.76945    0.38838    1.000
    Si5135   Si       0.86154    0.91830    0.40392    1.000
    N5136    N        0.82613    0.90182    0.42234    1.000
    N5137    N        0.83842    0.89407    0.48408    1.000
    N5138    N        0.87034    0.76865    0.26826    1.000
    N5139    N        0.80946    0.96362    0.46694    1.000
    Si5140   Si       0.82934    0.86198    0.58076    1.000
    N5141    N        0.85640    0.83550    0.60220    1.000
    N5142    N        0.86368    0.77952    0.55153    1.000
    N5143    N        0.82584    0.78282    0.61471    1.000
    Si5144   Si       0.83023    0.76659    0.52769    1.000
    Si5145   Si       0.85964    0.76330    0.59182    1.000
    N5146    N        0.82032    0.79450    0.49657    1.000
    N5147    N        0.84670    0.89045    0.55312    1.000
    N5148    N        0.85712    0.94636    0.50855    1.000
    Si5149   Si       0.83178    0.91382    0.52056    1.000
    Si5150   Si       0.85342    0.97193    0.60335    1.000
    N5151    N        0.82286    0.00271    0.59147    1.000
    N5152    N        0.81419    0.88774    0.61151    1.000
    N5153    N        0.84190    0.79688    0.67251    1.000
    Si5154   Si       0.84405    0.82098    0.70967    1.000
    Si5155   Si       0.81880    0.76596    0.65390    1.000
    Si5156   Si       0.86219    0.80809    0.63499    1.000
    Si5157   Si       0.82391    0.88854    0.70345    1.000
    N5158    N        0.84193    0.94547    0.63628    1.000
    N5159    N        0.84134    0.99315    0.69801    1.000
    N5160    N        0.84678    0.89532    0.73998    1.000
    N5161    N        0.85233    0.88748    0.66947    1.000
    Si5162   Si       0.85910    0.99538    0.73738    1.000
    Si5163   Si       0.85882    0.97332    0.66523    1.000
    Si5164   Si       0.84859    0.90332    0.63068    1.000
    Si5165   Si       0.84356    0.81083    0.78854    1.000
    N5166    N        0.85879    0.85245    0.79189    1.000
    N5167    N        0.82626    0.87628    0.85208    1.000
    N5168    N        0.86655    0.78425    0.81599    1.000
    Si5169   Si       0.85669    0.88643    0.82112    1.000
    N5170    N        0.84538    0.92485    0.80678    1.000
    Si5171   Si       0.84378    0.92995    0.76418    1.000
    N5172    N        0.82147    0.77780    0.98481    1.000
    N5173    N        0.84015    0.86461    0.92002    1.000
    Si5174   Si       0.82706    0.87347    0.96111    1.000
    Si5175   Si       0.83698    0.84595    0.88203    1.000
    N5176    N        0.84862    0.76424    0.88297    1.000
    N5177    N        0.86729    0.88171    0.97550    1.000
    N5178    N        0.84044    0.97408    0.97835    1.000
    N5179    N        0.86584    0.92675    0.92480    1.000
    Si5180   Si       0.85166    0.96282    0.93785    1.000
    Si5181   Si       0.85783    0.75431    0.97747    1.000
    N5182    N        0.84357    0.79827    0.74708    1.000
    Si5183   Si       0.91868    0.06306    0.10892    1.000
    N5184    N        0.87933    0.08432    0.10568    1.000
    N5185    N        0.87449    0.07013    0.01784    1.000
    Si5186   Si       0.89770    0.15749    0.06571    1.000
    N5187    N        0.88951    0.19793    0.05419    1.000
    N5188    N        0.89032    0.16279    0.11229    1.000
    Si5189   Si       0.91238    0.20471    0.01775    1.000
    N5190    N        0.92226    0.24470    0.01074    1.000
    N5191    N        0.90167    0.03224    0.13537    1.000
    N5192    N        0.92049    0.07638    0.19430    1.000
    Si5193   Si       0.89941    0.04109    0.18140    1.000
    N5194    N        0.88390    0.11125    0.23899    1.000
    Si5195   Si       0.90458    0.11678    0.20123    1.000
    N5196    N        0.87556    0.12605    0.16986    1.000
    Si5197   Si       0.87136    0.12488    0.12374    1.000
    N5198    N        0.87967    0.23489    0.19936    1.000
    N5199    N        0.89048    0.22343    0.13262    1.000
    Si5200   Si       0.91031    0.22961    0.17051    1.000
    Si5201   Si       0.90815    0.09980    0.34395    1.000
    N5202    N        0.89506    0.08713    0.30469    1.000
    Si5203   Si       0.88379    0.02431    0.36170    1.000
    Si5204   Si       0.91330    0.04588    0.30981    1.000
    N5205    N        0.90856    0.04207    0.26603    1.000
    N5206    N        0.91121    0.05841    0.35789    1.000
    Si5207   Si       0.90754    0.08523    0.26195    1.000
    N5208    N        0.89008    0.01169    0.32194    1.000
    N5209    N        0.87554    0.12614    0.35966    1.000
    Si5210   Si       0.87767    0.01839    0.24807    1.000
    Si5211   Si       0.89770    0.18254    0.29978    1.000
    N5212    N        0.88407    0.22345    0.29827    1.000
    Si5213   Si       0.92036    0.23871    0.31909    1.000
    N5214    N        0.92457    0.19737    0.33690    1.000
    Si5215   Si       0.92301    0.06775    0.40072    1.000
    N5216    N        0.88440    0.06297    0.42041    1.000
    N5217    N        0.91804    0.09739    0.46828    1.000
    Si5218   Si       0.87738    0.08951    0.45625    1.000
    N5219    N        0.93070    0.10939    0.39430    1.000
    N5220    N        0.88287    0.24527    0.41150    1.000
    Si5221   Si       0.88248    0.20334    0.42508    1.000
    N5222    N        0.90559    0.17578    0.39963    1.000
    Si5223   Si       0.89089    0.13521    0.39942    1.000
    N5224    N        0.89238    0.20319    0.46807    1.000
    Si5225   Si       0.92828    0.22485    0.48151    1.000
    Si5226   Si       0.89966    0.05703    0.57068    1.000
    N5227    N        0.91371    0.05259    0.52977    1.000
    N5228    N        0.91801    0.01965    0.58535    1.000
    N5229    N        0.92084    0.08903    0.59335    1.000
    Si5230   Si       0.88145    0.03659    0.50305    1.000
    Si5231   Si       0.90785    0.13054    0.59225    1.000
    N5232    N        0.87916    0.16649    0.52289    1.000
    N5233    N        0.90195    0.21239    0.58513    1.000
    Si5234   Si       0.92205    0.17199    0.53017    1.000
    Si5235   Si       0.92832    0.23979    0.55990    1.000
    Si5236   Si       0.92444    0.19659    0.62133    1.000
    N5237    N        0.92925    0.21616    0.52479    1.000
    N5238    N        0.89131    0.02392    0.73767    1.000
    Si5239   Si       0.89003    0.06513    0.73130    1.000
    Si5240   Si       0.91334    0.01109    0.62851    1.000
    N5241    N        0.92562    0.04712    0.65182    1.000
    Si5242   Si       0.87748    0.20786    0.70543    1.000
    Si5243   Si       0.87758    0.13603    0.71847    1.000
    N5244    N        0.90147    0.16035    0.62593    1.000
    N5245    N        0.91962    0.21318    0.71529    1.000
    N5246    N        0.91567    0.22642    0.64996    1.000
    N5247    N        0.92217    0.14263    0.71701    1.000
    Si5248   Si       0.88066    0.25530    0.64579    1.000
    N5249    N        0.86707    0.12791    0.57738    1.000
    N5250    N        0.86865    0.16710    0.68973    1.000
    Si5251   Si       0.88744    0.08460    0.81352    1.000
    N5252    N        0.92250    0.08768    0.83999    1.000
    N5253    N        0.87478    0.07856    0.77120    1.000
    N5254    N        0.91385    0.18091    0.77454    1.000
    Si5255   Si       0.86974    0.18073    0.77346    1.000
    Si5256   Si       0.91645    0.07631    0.88265    1.000
    N5257    N        0.90975    0.11555    0.97534    1.000
    N5258    N        0.88669    0.05584    0.95774    1.000
    N5259    N        0.87786    0.05768    0.89040    1.000
    Si5260   Si       0.90883    0.07383    0.98997    1.000
    N5261    N        0.92389    0.11203    0.90598    1.000
    N5262    N        0.88528    0.19241    0.98551    1.000
    Si5263   Si       0.89226    0.15469    0.96320    1.000
    N5264    N        0.93184    0.16350    0.94160    1.000
    Si5265   Si       0.91679    0.15482    0.89688    1.000
    N5266    N        0.89721    0.23131    0.91406    1.000
    N5267    N        0.87722    0.16636    0.88829    1.000
    N5268    N        0.89765    0.30632    0.03252    1.000
    Si5269   Si       0.91207    0.36854    0.07155    1.000
    N5270    N        0.91820    0.32830    0.08832    1.000
    Si5271   Si       0.89118    0.27339    0.00462    1.000
    N5272    N        0.92837    0.26319    0.08539    1.000
    Si5273   Si       0.92962    0.29877    0.06020    1.000
    Si5274   Si       0.89213    0.26188    0.11043    1.000
    N5275    N        0.90856    0.38526    0.11060    1.000
    N5276    N        0.88311    0.46692    0.08380    1.000
    Si5277   Si       0.92431    0.46158    0.07144    1.000
    N5278    N        0.92237    0.44360    0.03316    1.000
    N5279    N        0.92919    0.50502    0.07819    1.000
    Si5280   Si       0.89961    0.33884    0.12609    1.000
    N5281    N        0.89525    0.30447    0.21457    1.000
    Si5282   Si       0.91142    0.30036    0.17506    1.000
    N5283    N        0.88569    0.29453    0.13896    1.000
    N5284    N        0.92704    0.33677    0.16031    1.000
    Si5285   Si       0.91002    0.48628    0.20477    1.000
    N5286    N        0.88912    0.42785    0.23373    1.000
    Si5287   Si       0.92092    0.41918    0.20386    1.000
    N5288    N        0.90610    0.41295    0.16349    1.000
    N5289    N        0.87084    0.47024    0.18695    1.000
    N5290    N        0.89262    0.33336    0.33014    1.000
    N5291    N        0.91411    0.29731    0.28030    1.000
    Si5292   Si       0.87940    0.30287    0.25550    1.000
    N5293    N        0.90822    0.26638    0.35034    1.000
    Si5294   Si       0.87827    0.29707    0.34828    1.000
    Si5295   Si       0.89599    0.45582    0.26773    1.000
    Si5296   Si       0.89350    0.48994    0.35927    1.000
    Si5297   Si       0.91962    0.40592    0.31766    1.000
    N5298    N        0.92486    0.44363    0.29711    1.000
    N5299    N        0.90526    0.49441    0.24799    1.000
    N5300    N        0.87624    0.39970    0.30939    1.000
    N5301    N        0.91848    0.50602    0.32815    1.000
    N5302    N        0.88576    0.32329    0.45897    1.000
    N5303    N        0.91539    0.35363    0.39903    1.000
    Si5304   Si       0.88131    0.33443    0.41764    1.000
    Si5305   Si       0.89732    0.29776    0.49350    1.000
    N5306    N        0.92587    0.26900    0.48006    1.000
    Si5307   Si       0.91953    0.25921    0.39108    1.000
    N5308    N        0.91962    0.47791    0.39163    1.000
    Si5309   Si       0.92928    0.39498    0.39840    1.000
    N5310    N        0.92428    0.44551    0.45870    1.000
    N5311    N        0.90093    0.38388    0.48339    1.000
    Si5312   Si       0.90270    0.42662    0.49087    1.000
    N5313    N        0.88740    0.50046    0.44557    1.000
    N5314    N        0.89406    0.42000    0.40802    1.000
    Si5315   Si       0.90005    0.46152    0.42708    1.000
    N5316    N        0.90948    0.34376    0.59520    1.000
    N5317    N        0.90637    0.27516    0.56261    1.000
    N5318    N        0.91102    0.32712    0.52388    1.000
    Si5319   Si       0.92005    0.31544    0.56345    1.000
    Si5320   Si       0.87601    0.32550    0.61719    1.000
    N5321    N        0.88142    0.47692    0.55775    1.000
    Si5322   Si       0.92229    0.46473    0.55366    1.000
    Si5323   Si       0.87916    0.50417    0.59316    1.000
    N5324    N        0.88091    0.33344    0.71141    1.000
    Si5325   Si       0.90437    0.29875    0.72625    1.000
    N5326    N        0.89948    0.29163    0.63456    1.000
    Si5327   Si       0.89363    0.37317    0.72588    1.000
    Si5328   Si       0.92067    0.44726    0.62729    1.000
    Si5329   Si       0.91990    0.48466    0.72803    1.000
    N5330    N        0.89190    0.49130    0.69638    1.000
    N5331    N        0.91370    0.40418    0.62860    1.000
    N5332    N        0.89784    0.39979    0.69283    1.000
    N5333    N        0.90111    0.48658    0.62731    1.000
    Si5334   Si       0.88233    0.39154    0.65391    1.000
    N5335    N        0.92946    0.43424    0.52375    1.000
    N5336    N        0.89259    0.29656    0.82255    1.000
    N5337    N        0.89592    0.36529    0.81333    1.000
    Si5338   Si       0.91681    0.28884    0.78587    1.000
    Si5339   Si       0.89589    0.27000    0.85631    1.000
    N5340    N        0.88357    0.27770    0.75694    1.000
    Si5341   Si       0.92006    0.38208    0.84581    1.000
    N5342    N        0.87310    0.35186    0.87237    1.000
    Si5343   Si       0.87138    0.33442    0.83174    1.000
    Si5344   Si       0.89109    0.46798    0.79988    1.000
    N5345    N        0.90370    0.42709    0.79112    1.000
    N5346    N        0.89557    0.49111    0.76349    1.000
    N5347    N        0.91995    0.48136    0.83438    1.000
    N5348    N        0.90836    0.42054    0.86532    1.000
    Si5349   Si       0.87333    0.39668    0.79272    1.000
    N5350    N        0.90644    0.34973    0.93718    1.000
    N5351    N        0.89420    0.29411    0.89219    1.000
    Si5352   Si       0.90544    0.33680    0.89623    1.000
    N5353    N        0.88735    0.28726    0.96481    1.000
    Si5354   Si       0.88112    0.27007    0.92461    1.000
    Si5355   Si       0.87400    0.32853    0.95952    1.000
    Si5356   Si       0.89715    0.49055    0.87310    1.000
    N5357    N        0.92022    0.39900    0.98485    1.000
    Si5358   Si       0.88506    0.42861    0.90011    1.000
    Si5359   Si       0.89971    0.43714    0.97564    1.000
    N5360    N        0.92504    0.50408    0.90435    1.000
    N5361    N        0.91373    0.43938    0.93204    1.000
    N5362    N        0.90672    0.47963    0.97561    1.000
    N5363    N        0.93181    0.31613    0.75432    1.000
    Si5364   Si       0.88575    0.56430    0.04392    1.000
    N5365    N        0.88503    0.54478    0.00634    1.000
    N5366    N        0.88549    0.61893    0.10476    1.000
    N5367    N        0.92681    0.57111    0.05944    1.000
    Si5368   Si       0.88935    0.51070    0.09183    1.000
    Si5369   Si       0.88338    0.63251    0.06536    1.000
    N5370    N        0.92479    0.63587    0.05294    1.000
    Si5371   Si       0.87899    0.70342    0.03631    1.000
    N5372    N        0.92186    0.69827    0.02075    1.000
    N5373    N        0.87361    0.73324    0.07024    1.000
    N5374    N        0.90327    0.52792    0.19806    1.000
    Si5375   Si       0.90677    0.54683    0.15980    1.000
    Si5376   Si       0.88115    0.60620    0.20244    1.000
    N5377    N        0.88459    0.52019    0.13313    1.000
    N5378    N        0.89589    0.58702    0.16613    1.000
    Si5379   Si       0.91087    0.61643    0.13779    1.000
    Si5380   Si       0.90533    0.54554    0.23800    1.000
    N5381    N        0.91170    0.62956    0.22481    1.000
    Si5382   Si       0.89830    0.66884    0.23669    1.000
    Si5383   Si       0.90174    0.69064    0.16530    1.000
    N5384    N        0.87759    0.68459    0.20225    1.000
    N5385    N        0.92233    0.65430    0.15518    1.000
    N5386    N        0.87105    0.70886    0.13870    1.000
    N5387    N        0.89434    0.55454    0.28130    1.000
    Si5388   Si       0.90153    0.60805    0.36167    1.000
    Si5389   Si       0.92188    0.54684    0.31365    1.000
    N5390    N        0.91887    0.57070    0.34765    1.000
    N5391    N        0.87826    0.62526    0.32912    1.000
    Si5392   Si       0.89169    0.66236    0.31377    1.000
    N5393    N        0.90648    0.75215    0.35316    1.000
    Si5394   Si       0.89832    0.71131    0.36748    1.000
    N5395    N        0.87547    0.66475    0.27220    1.000
    N5396    N        0.92786    0.74736    0.28733    1.000
    Si5397   Si       0.89208    0.59373    0.43417    1.000
    Si5398   Si       0.87903    0.52930    0.47805    1.000
    N5399    N        0.87824    0.52299    0.38137    1.000
    Si5400   Si       0.91811    0.54281    0.38620    1.000
    N5401    N        0.92460    0.56679    0.42171    1.000
    N5402    N        0.88260    0.70209    0.46010    1.000
    N5403    N        0.90096    0.63629    0.43923    1.000
    Si5404   Si       0.88335    0.73813    0.43424    1.000
    N5405    N        0.92016    0.75943    0.42248    1.000
    Si5406   Si       0.90976    0.70303    0.49364    1.000
    N5407    N        0.90891    0.60662    0.54205    1.000
    N5408    N        0.89912    0.54054    0.57537    1.000
    Si5409   Si       0.88064    0.57865    0.56284    1.000
    N5410    N        0.91343    0.54301    0.50097    1.000
    N5411    N        0.87227    0.74128    0.71197    1.000
    N5412    N        0.87396    0.66146    0.56550    1.000
    Si5413   Si       0.91013    0.64874    0.54443    1.000
    N5414    N        0.90001    0.71395    0.53473    1.000
    N5415    N        0.91526    0.66062    0.50110    1.000
    Si5416   Si       0.87277    0.64225    0.60609    1.000
    Si5417   Si       0.91603    0.62158    0.66433    1.000
    N5418    N        0.88249    0.59515    0.66807    1.000
    N5419    N        0.89535    0.55541    0.72623    1.000
    Si5420   Si       0.89971    0.51509    0.65978    1.000
    N5421    N        0.90723    0.64927    0.63143    1.000
    Si5422   Si       0.91089    0.74249    0.72933    1.000
    Si5423   Si       0.87060    0.71628    0.67772    1.000
    N5424    N        0.91033    0.71972    0.65953    1.000
    N5425    N        0.92150    0.63421    0.70733    1.000
    Si5426   Si       0.92167    0.74713    0.62952    1.000
    N5427    N        0.92653    0.70036    0.72921    1.000
    Si5428   Si       0.89752    0.66704    0.72295    1.000
    Si5429   Si       0.92938    0.58189    0.51554    1.000
    Si5430   Si       0.89298    0.53534    0.76468    1.000
    N5431    N        0.89163    0.58839    0.83357    1.000
    Si5432   Si       0.90654    0.56211    0.86223    1.000
    N5433    N        0.92190    0.61442    0.78111    1.000
    N5434    N        0.87785    0.53025    0.86646    1.000
    N5435    N        0.92397    0.54571    0.79073    1.000
    Si5436   Si       0.88551    0.63391    0.79697    1.000
    Si5437   Si       0.88385    0.74911    0.79937    1.000
    N5438    N        0.89200    0.65791    0.83194    1.000
    N5439    N        0.89123    0.71961    0.83041    1.000
    Si5440   Si       0.92250    0.68949    0.82666    1.000
    N5441    N        0.88106    0.66411    0.76255    1.000
    Si5442   Si       0.91703    0.64302    0.86935    1.000
    Si5443   Si       0.89430    0.56513    0.96830    1.000
    N5444    N        0.90999    0.57390    0.90220    1.000
    N5445    N        0.87879    0.60387    0.95619    1.000
    Si5446   Si       0.87833    0.59872    0.91291    1.000
    Si5447   Si       0.87451    0.50764    0.98436    1.000
    Si5448   Si       0.92964    0.73160    0.88192    1.000
    N5449    N        0.90211    0.73684    0.91747    1.000
    N5450    N        0.87866    0.63514    0.89228    1.000
    Si5451   Si       0.88525    0.64070    0.97488    1.000
    N5452    N        0.92650    0.64440    0.98127    1.000
    N5453    N        0.91931    0.77118    0.03079    1.000
    N5454    N        0.88636    0.85862    0.10051    1.000
    N5455    N        0.91762    0.85064    0.04717    1.000
    N5456    N        0.87974    0.80096    0.08412    1.000
    Si5457   Si       0.90352    0.80500    0.00425    1.000
    Si5458   Si       0.90204    0.76679    0.06995    1.000
    Si5459   Si       0.87585    0.83839    0.05827    1.000
    Si5460   Si       0.92733    0.86665    0.08987    1.000
    Si5461   Si       0.88142    0.89053    0.01530    1.000
    N5462    N        0.90021    0.96076    0.09189    1.000
    N5463    N        0.92208    0.90217    0.00581    1.000
    Si5464   Si       0.88647    0.81940    0.12441    1.000
    Si5465   Si       0.90833    0.76592    0.18449    1.000
    N5466    N        0.90980    0.79293    0.15141    1.000
    N5467    N        0.91722    0.78893    0.22074    1.000
    N5468    N        0.91498    0.96293    0.15684    1.000
    N5469    N        0.89248    0.00701    0.20762    1.000
    Si5470   Si       0.90546    0.93125    0.12475    1.000
    Si5471   Si       0.93036    0.00039    0.14306    1.000
    Si5472   Si       0.90752    0.96622    0.19996    1.000
    N5473    N        0.87256    0.94052    0.20306    1.000
    N5474    N        0.90362    0.80965    0.31288    1.000
    Si5475   Si       0.89648    0.76642    0.30942    1.000
    N5476    N        0.92064    0.84964    0.25901    1.000
    N5477    N        0.87424    0.94765    0.43580    1.000
    N5478    N        0.91495    0.88574    0.32370    1.000
    Si5479   Si       0.90903    0.88672    0.27783    1.000
    Si5480   Si       0.90143    0.92054    0.34443    1.000
    N5481    N        0.90553    0.94853    0.31456    1.000
    Si5482   Si       0.87270    0.97599    0.30434    1.000
    Si5483   Si       0.88069    0.83883    0.40951    1.000
    N5484    N        0.92071    0.83281    0.42896    1.000
    Si5485   Si       0.92212    0.83297    0.47088    1.000
    N5486    N        0.89032    0.81074    0.49484    1.000
    N5487    N        0.88822    0.88340    0.40716    1.000
    N5488    N        0.92490    0.93428    0.37926    1.000
    Si5489   Si       0.88044    0.99294    0.43340    1.000
    N5490    N        0.89705    0.99671    0.39165    1.000
    N5491    N        0.89415    0.00538    0.47351    1.000
    N5492    N        0.87173    0.81148    0.37786    1.000
    N5493    N        0.90568    0.83961    0.55856    1.000
    Si5494   Si       0.89807    0.80211    0.53650    1.000
    Si5495   Si       0.89771    0.85101    0.60106    1.000
    N5496    N        0.89053    0.77602    0.61870    1.000
    N5497    N        0.92158    0.90529    0.54855    1.000
    N5498    N        0.88346    0.89296    0.60618    1.000
    N5499    N        0.91986    0.98107    0.52599    1.000
    Si5500   Si       0.88344    0.91038    0.56714    1.000
    Si5501   Si       0.87867    0.97493    0.53343    1.000
    N5502    N        0.87477    0.95319    0.57265    1.000
    N5503    N        0.88064    0.84420    0.71526    1.000
    Si5504   Si       0.89064    0.86688    0.67935    1.000
    N5505    N        0.89477    0.83714    0.64884    1.000
    N5506    N        0.89540    0.95615    0.67861    1.000
    N5507    N        0.87145    0.00105    0.63228    1.000
    Si5508   Si       0.88316    0.86595    0.75293    1.000
    N5509    N        0.92032    0.83519    0.76504    1.000
    Si5510   Si       0.87935    0.78339    0.85868    1.000
    N5511    N        0.92211    0.77168    0.86658    1.000
    N5512    N        0.91573    0.75929    0.76995    1.000
    N5513    N        0.89362    0.88600    0.84354    1.000
    Si5514   Si       0.91246    0.94015    0.76714    1.000
    N5515    N        0.91290    0.89788    0.75589    1.000
    N5516    N        0.91850    0.94437    0.81177    1.000
    N5517    N        0.87483    0.95787    0.75299    1.000
    Si5518   Si       0.92837    0.91116    0.83580    1.000
    Si5519   Si       0.90835    0.85514    0.87156    1.000
    N5520    N        0.87532    0.82583    0.87334    1.000
    N5521    N        0.89212    0.77893    0.96888    1.000
    N5522    N        0.90995    0.87333    0.90981    1.000
    Si5523   Si       0.92421    0.76333    0.94365    1.000
    N5524    N        0.90798    0.97247    0.99242    1.000
    Si5525   Si       0.92586    0.97479    0.92541    1.000
    Si5526   Si       0.87635    0.88604    0.93355    1.000
    N5527    N        0.88326    0.99088    0.92589    1.000
    Si5528   Si       0.95557    0.03899    0.04241    1.000
    Si5529   Si       0.95519    0.10059    0.05430    1.000
    N5530    N        0.97053    0.09928    0.01575    1.000
    N5531    N        0.94007    0.04517    0.00066    1.000
    N5532    N        0.93232    0.06538    0.06793    1.000
    Si5533   Si       0.96367    0.23824    0.08144    1.000
    N5534    N        0.95520    0.19630    0.08642    1.000
    Si5535   Si       0.96655    0.16863    0.05253    1.000
    N5536    N        0.94398    0.17753    0.01504    1.000
    N5537    N        0.98278    0.24115    0.04335    1.000
    N5538    N        0.93642    0.13786    0.06386    1.000
    Si5539   Si       0.96491    0.24815    0.00457    1.000
    N5540    N        0.98753    0.25007    0.11761    1.000
    Si5541   Si       0.97488    0.11189    0.12233    1.000
    Si5542   Si       0.95817    0.06130    0.17592    1.000
    N5543    N        0.95183    0.07662    0.13386    1.000
    N5544    N        0.94823    0.01953    0.17772    1.000
    Si5545   Si       0.93090    0.18252    0.12189    1.000
    N5546    N        0.94574    0.20287    0.15995    1.000
    Si5547   Si       0.96065    0.16273    0.17580    1.000
    N5548    N        0.94024    0.14144    0.20776    1.000
    N5549    N        0.95287    0.14570    0.13675    1.000
    Si5550   Si       0.97215    0.24228    0.15667    1.000
    Si5551   Si       0.95257    0.14177    0.25021    1.000
    N5552    N        0.95755    0.04858    0.31304    1.000
    Si5553   Si       0.96719    0.09031    0.30480    1.000
    N5554    N        0.94964    0.11429    0.33538    1.000
    N5555    N        0.94809    0.10294    0.26632    1.000
    Si5556   Si       0.96730    0.20219    0.27798    1.000
    N5557    N        0.95344    0.24232    0.29179    1.000
    N5558    N        0.93325    0.17335    0.27410    1.000
    Si5559   Si       0.97480    0.01003    0.32531    1.000
    Si5560   Si       0.96585    0.12421    0.37286    1.000
    Si5561   Si       0.95234    0.11318    0.48557    1.000
    N5562    N        0.96124    0.04911    0.41078    1.000
    N5563    N        0.95771    0.01978    0.48000    1.000
    Si5564   Si       0.97008    0.01623    0.43719    1.000
    N5565    N        0.98036    0.13172    0.45532    1.000
    N5566    N        0.96276    0.20911    0.46011    1.000
    Si5567   Si       0.93984    0.19263    0.37764    1.000
    Si5568   Si       0.98111    0.17025    0.47846    1.000
    Si5569   Si       0.98022    0.23509    0.42825    1.000
    N5570    N        0.95015    0.22959    0.39682    1.000
    N5571    N        0.97324    0.16541    0.38519    1.000
    Si5572   Si       0.95337    0.04727    0.51419    1.000
    N5573    N        0.97316    0.02756    0.54739    1.000
    N5574    N        0.97377    0.08513    0.51174    1.000
    N5575    N        0.98156    0.05774    0.61670    1.000
    Si5576   Si       0.97772    0.16390    0.58301    1.000
    N5577    N        0.96747    0.24648    0.57786    1.000
    N5578    N        0.93655    0.15419    0.56787    1.000
    N5579    N        0.95055    0.15229    0.50447    1.000
    N5580    N        0.96538    0.18621    0.61941    1.000
    Si5581   Si       0.94369    0.07805    0.62731    1.000
    Si5582   Si       0.95109    0.04239    0.68641    1.000
    Si5583   Si       0.94443    0.11195    0.69603    1.000
    N5584    N        0.95584    0.11174    0.65498    1.000
    N5585    N        0.93379    0.07387    0.71348    1.000
    N5586    N        0.98335    0.11236    0.71859    1.000
    Si5587   Si       0.93821    0.18079    0.73893    1.000
    N5588    N        0.98075    0.22838    0.67652    1.000
    Si5589   Si       0.93965    0.23870    0.68451    1.000
    Si5590   Si       0.93032    0.00814    0.74426    1.000
    N5591    N        0.95416    0.10598    0.77663    1.000
    Si5592   Si       0.95840    0.10229    0.82004    1.000
    N5593    N        0.94988    0.03754    0.76765    1.000
    Si5594   Si       0.96961    0.03483    0.80603    1.000
    N5595    N        0.98905    0.07034    0.82234    1.000
    N5596    N        0.94270    0.00890    0.82897    1.000
    Si5597   Si       0.96467    0.07444    0.74776    1.000
    Si5598   Si       0.95864    0.00848    0.86898    1.000
    Si5599   Si       0.98074    0.13384    0.75656    1.000
    Si5600   Si       0.97455    0.17891    0.85088    1.000
    N5601    N        0.97684    0.14275    0.82595    1.000
    N5602    N        0.93398    0.24999    0.85951    1.000
    N5603    N        0.97864    0.17623    0.75151    1.000
    Si5604   Si       0.94271    0.11823    0.94449    1.000
    Si5605   Si       0.97974    0.06408    0.91125    1.000
    N5606    N        0.94903    0.04590    0.88754    1.000
    N5607    N        0.96503    0.08102    0.94900    1.000
    Si5608   Si       0.98060    0.06557    0.98586    1.000
    Si5609   Si       0.93920    0.22529    0.89565    1.000
    N5610    N        0.94136    0.18387    0.87676    1.000
    Si5611   Si       0.95988    0.17620    0.97365    1.000
    N5612    N        0.98070    0.23372    0.90813    1.000
    N5613    N        0.97719    0.21689    0.97510    1.000
    Si5614   Si       0.97002    0.25508    0.83690    1.000
    N5615    N        0.96950    0.31173    0.04654    1.000
    Si5616   Si       0.97002    0.35118    0.02558    1.000
    N5617    N        0.94681    0.37918    0.04618    1.000
    Si5618   Si       0.94570    0.41258    0.01637    1.000
    N5619    N        0.94820    0.44347    0.10190    1.000
    Si5620   Si       0.99187    0.44966    0.08815    1.000
    Si5621   Si       0.95800    0.36191    0.17482    1.000
    N5622    N        0.93550    0.26437    0.17078    1.000
    Si5623   Si       0.93503    0.41492    0.13123    1.000
    N5624    N        0.97200    0.39348    0.14407    1.000
    Si5625   Si       0.98026    0.47117    0.21452    1.000
    N5626    N        0.94206    0.45724    0.19974    1.000
    N5627    N        0.95114    0.38880    0.20909    1.000
    N5628    N        0.99031    0.28126    0.24476    1.000
    N5629    N        0.95678    0.31471    0.34792    1.000
    Si5630   Si       0.95599    0.28212    0.27282    1.000
    N5631    N        0.93860    0.37095    0.30196    1.000
    N5632    N        0.97400    0.31916    0.29009    1.000
    Si5633   Si       0.98263    0.37356    0.29854    1.000
    Si5634   Si       0.93281    0.32671    0.31143    1.000
    N5635    N        0.97836    0.48184    0.28203    1.000
    N5636    N        0.94039    0.40882    0.35744    1.000
    Si5637   Si       0.94765    0.47641    0.31310    1.000
    N5638    N        0.96988    0.46659    0.34777    1.000
    Si5639   Si       0.98054    0.42470    0.34647    1.000
    Si5640   Si       0.94840    0.32628    0.38765    1.000
    Si5641   Si       0.95359    0.29296    0.45278    1.000
    N5642    N        0.95437    0.33505    0.46818    1.000
    Si5643   Si       0.98028    0.36080    0.44575    1.000
    N5644    N        0.93562    0.29261    0.41269    1.000
    N5645    N        0.98524    0.33758    0.40894    1.000
    Si5646   Si       0.93069    0.35626    0.49691    1.000
    N5647    N        0.96040    0.39582    0.42787    1.000
    N5648    N        0.98579    0.46066    0.41602    1.000
    Si5649   Si       0.96031    0.48362    0.38711    1.000
    Si5650   Si       0.96375    0.43507    0.44501    1.000
    N5651    N        0.98743    0.42707    0.47974    1.000
    N5652    N        0.96330    0.31505    0.56919    1.000
    Si5653   Si       0.97909    0.35476    0.55853    1.000
    N5654    N        0.95999    0.37562    0.52233    1.000
    Si5655   Si       0.98369    0.28525    0.59347    1.000
    Si5656   Si       0.93619    0.36863    0.61810    1.000
    N5657    N        0.96621    0.38010    0.59063    1.000
    Si5658   Si       0.96840    0.41738    0.51685    1.000
    Si5659   Si       0.97578    0.42088    0.58583    1.000
    N5660    N        0.94330    0.45006    0.58869    1.000
    N5661    N        0.94679    0.49981    0.54180    1.000
    Si5662   Si       0.93641    0.42045    0.69644    1.000
    N5663    N        0.97853    0.29198    0.63549    1.000
    N5664    N        0.94905    0.34594    0.65212    1.000
    Si5665   Si       0.93910    0.30210    0.65354    1.000
    Si5666   Si       0.98226    0.35618    0.68205    1.000
    N5667    N        0.93113    0.38118    0.74652    1.000
    Si5668   Si       0.98637    0.43301    0.66024    1.000
    N5669    N        0.93631    0.44416    0.73174    1.000
    N5670    N        0.97296    0.39909    0.68332    1.000
    N5671    N        0.94457    0.44925    0.66524    1.000
    N5672    N        0.98668    0.34432    0.72315    1.000
    N5673    N        0.92938    0.28183    0.69284    1.000
    N5674    N        0.97943    0.34597    0.79400    1.000
    N5675    N        0.95702    0.27331    0.79878    1.000
    Si5676   Si       0.95982    0.34839    0.75586    1.000
    N5677    N        0.98285    0.41812    0.99418    1.000
    Si5678   Si       0.93126    0.47870    0.93915    1.000
    N5679    N        0.97238    0.49613    0.79886    1.000
    N5680    N        0.95333    0.40305    0.83022    1.000
    N5681    N        0.98226    0.41528    0.77516    1.000
    Si5682   Si       0.93973    0.41919    0.76786    1.000
    N5683    N        0.98032    0.45663    0.85765    1.000
    Si5684   Si       0.94068    0.44240    0.84593    1.000
    Si5685   Si       0.98744    0.38601    0.80814    1.000
    Si5686   Si       0.98600    0.50555    0.75684    1.000
    N5687    N        0.93777    0.35601    0.87539    1.000
    Si5688   Si       0.97728    0.36006    0.89636    1.000
    N5689    N        0.97379    0.27878    0.97286    1.000
    Si5690   Si       0.93766    0.37144    0.95747    1.000
    N5691    N        0.96282    0.34333    0.98404    1.000
    Si5692   Si       0.98686    0.31874    0.95870    1.000
    N5693    N        0.96985    0.38398    0.93148    1.000
    N5694    N        0.96962    0.49769    0.95250    1.000
    Si5695   Si       0.95300    0.53514    0.06106    1.000
    Si5696   Si       0.94820    0.60678    0.07568    1.000
    N5697    N        0.98273    0.54892    0.08826    1.000
    N5698    N        0.94753    0.60282    0.11848    1.000
    N5699    N        0.96568    0.51775    0.02188    1.000
    Si5700   Si       0.94299    0.73774    0.01577    1.000
    Si5701   Si       0.94110    0.65889    0.01943    1.000
    N5702    N        0.97964    0.73530    0.03787    1.000
    Si5703   Si       0.97838    0.74523    0.08052    1.000
    N5704    N        0.98513    0.65543    0.01294    1.000
    N5705    N        0.97749    0.71472    0.11297    1.000
    N5706    N        0.99247    0.61835    0.07226    1.000
    Si5707   Si       0.97222    0.56880    0.12661    1.000
    N5708    N        0.95093    0.54520    0.15630    1.000
    Si5709   Si       0.95223    0.61218    0.22640    1.000
    N5710    N        0.97243    0.60994    0.18574    1.000
    Si5711   Si       0.96564    0.54942    0.19786    1.000
    N5712    N        0.94223    0.56980    0.23033    1.000
    N5713    N        0.96618    0.51155    0.22193    1.000
    N5714    N        0.93189    0.69610    0.24461    1.000
    Si5715   Si       0.95260    0.70994    0.20813    1.000
    N5716    N        0.97352    0.74141    0.23042    1.000
    Si5717   Si       0.94888    0.74215    0.13495    1.000
    Si5718   Si       0.96565    0.64739    0.16447    1.000
    N5719    N        0.97398    0.67690    0.19385    1.000
    N5720    N        0.92963    0.72655    0.17271    1.000
    N5721    N        0.96278    0.54931    0.29441    1.000
    N5722    N        0.97143    0.62683    0.31685    1.000
    Si5723   Si       0.97994    0.58271    0.31545    1.000
    Si5724   Si       0.97667    0.52203    0.26388    1.000
    Si5725   Si       0.95866    0.65496    0.34478    1.000
    Si5726   Si       0.94291    0.70594    0.28607    1.000
    N5727    N        0.98685    0.70621    0.28960    1.000
    N5728    N        0.98315    0.63392    0.24627    1.000
    N5729    N        0.93107    0.67999    0.31964    1.000
    N5730    N        0.97271    0.74488    0.37479    1.000
    N5731    N        0.97100    0.53510    0.47065    1.000
    N5732    N        0.94650    0.60011    0.47943    1.000
    Si5733   Si       0.95900    0.57189    0.44880    1.000
    N5734    N        0.96188    0.52643    0.38697    1.000
    N5735    N        0.93322    0.63467    0.37435    1.000
    Si5736   Si       0.92892    0.65783    0.41206    1.000
    N5737    N        0.94345    0.72975    0.48340    1.000
    Si5738   Si       0.97314    0.70403    0.38782    1.000
    Si5739   Si       0.94804    0.64271    0.48002    1.000
    N5740    N        0.96182    0.66022    0.44244    1.000
    N5741    N        0.92967    0.69442    0.39183    1.000
    N5742    N        0.96097    0.56078    0.53659    1.000
    N5743    N        0.96272    0.54497    0.60261    1.000
    Si5744   Si       0.95304    0.52459    0.50558    1.000
    Si5745   Si       0.94072    0.53470    0.56643    1.000
    N5746    N        0.97300    0.67456    0.63610    1.000
    N5747    N        0.94206    0.65856    0.57410    1.000
    N5748    N        0.97304    0.71774    0.54260    1.000
    Si5749   Si       0.98098    0.65259    0.55571    1.000
    N5750    N        0.98053    0.64878    0.51197    1.000
    Si5751   Si       0.93478    0.67868    0.61279    1.000
    Si5752   Si       0.98191    0.73456    0.50280    1.000
    Si5753   Si       0.93265    0.73468    0.55498    1.000
    N5754    N        0.92875    0.71969    0.59581    1.000
    N5755    N        0.95654    0.60535    0.65367    1.000
    Si5756   Si       0.93646    0.55035    0.71064    1.000
    Si5757   Si       0.94030    0.61545    0.74097    1.000
    Si5758   Si       0.96389    0.56211    0.64474    1.000
    N5759    N        0.96140    0.57923    0.73063    1.000
    N5760    N        0.95238    0.51367    0.72993    1.000
    N5761    N        0.93459    0.54145    0.66963    1.000
    Si5762   Si       0.98586    0.63605    0.65220    1.000
    N5763    N        0.94476    0.55208    0.84637    1.000
    N5764    N        0.97618    0.58777    0.79627    1.000
    Si5765   Si       0.94034    0.51671    0.81704    1.000
    Si5766   Si       0.98383    0.55694    0.86347    1.000
    N5767    N        0.95099    0.62492    0.84066    1.000
    Si5768   Si       0.93471    0.58453    0.81095    1.000
    Si5769   Si       0.96543    0.63761    0.79581    1.000
    N5770    N        0.95231    0.68259    0.79805    1.000
    Si5771   Si       0.96159    0.69145    0.75637    1.000
    N5772    N        0.97035    0.64789    0.75163    1.000
    N5773    N        0.93175    0.68867    0.86933    1.000
    N5774    N        0.97702    0.55430    0.90666    1.000
    Si5775   Si       0.96479    0.52971    0.98062    1.000
    Si5776   Si       0.93646    0.54411    0.91993    1.000
    N5777    N        0.98761    0.61248    0.95230    1.000
    N5778    N        0.93476    0.55359    0.96196    1.000
    Si5779   Si       0.98503    0.72319    0.95198    1.000
    Si5780   Si       0.96428    0.68092    0.90103    1.000
    N5781    N        0.95134    0.74275    0.97375    1.000
    N5782    N        0.97580    0.67951    0.94577    1.000
    N5783    N        0.96989    0.72596    0.90016    1.000
    N5784    N        0.94016    0.64298    0.90810    1.000
    Si5785   Si       0.95505    0.64035    0.94784    1.000
    Si5786   Si       0.94369    0.86525    0.01464    1.000
    N5787    N        0.94502    0.83194    0.11195    1.000
    Si5788   Si       0.98062    0.83202    0.08322    1.000
    N5789    N        0.97315    0.87310    0.07131    1.000
    N5790    N        0.98643    0.80836    0.04910    1.000
    N5791    N        0.98450    0.87268    0.00375    1.000
    N5792    N        0.94619    0.99701    0.04039    1.000
    Si5793   Si       0.94017    0.97568    0.07692    1.000
    N5794    N        0.97090    0.94400    0.07276    1.000
    Si5795   Si       0.97637    0.90828    0.09592    1.000
    N5796    N        0.95866    0.99785    0.11018    1.000
    N5797    N        0.93490    0.90470    0.11042    1.000
    N5798    N        0.93702    0.75753    0.09301    1.000
    N5799    N        0.97571    0.77516    0.14463    1.000
    Si5800   Si       0.94939    0.81086    0.14980    1.000
    N5801    N        0.95365    0.83912    0.18263    1.000
    Si5802   Si       0.94420    0.82873    0.22655    1.000
    N5803    N        0.98603    0.84963    0.23501    1.000
    N5804    N        0.94814    0.96171    0.21596    1.000
    Si5805   Si       0.96792    0.92912    0.23535    1.000
    Si5806   Si       0.97274    0.99349    0.20018    1.000
    Si5807   Si       0.98866    0.86292    0.19513    1.000
    N5808    N        0.96895    0.84470    0.31484    1.000
    N5809    N        0.96411    0.80009    0.26382    1.000
    Si5810   Si       0.93877    0.82514    0.29077    1.000
    Si5811   Si       0.94308    0.76505    0.25135    1.000
    Si5812   Si       0.95343    0.87689    0.33901    1.000
    N5813    N        0.96241    0.97965    0.29457    1.000
    N5814    N        0.97234    0.91543    0.32677    1.000
    Si5815   Si       0.94768    0.93983    0.30127    1.000
    N5816    N        0.96297    0.99468    0.36209    1.000
    N5817    N        0.93868    0.91490    0.26410    1.000
    Si5818   Si       0.92909    0.89871    0.40503    1.000
    N5819    N        0.96006    0.80388    0.38013    1.000
    N5820    N        0.94896    0.86995    0.37989    1.000
    Si5821   Si       0.95835    0.83771    0.40667    1.000
    N5822    N        0.95557    0.80416    0.47287    1.000
    N5823    N        0.93559    0.86742    0.49352    1.000
    Si5824   Si       0.94893    0.76504    0.45442    1.000
    Si5825   Si       0.93516    0.76740    0.38213    1.000
    N5826    N        0.96384    0.89571    0.43565    1.000
    N5827    N        0.94953    0.93698    0.49113    1.000
    Si5828   Si       0.96353    0.89992    0.47817    1.000
    N5829    N        0.94544    0.97889    0.43359    1.000
    Si5830   Si       0.93358    0.98093    0.47885    1.000
    Si5831   Si       0.93756    0.97480    0.38984    1.000
    N5832    N        0.94126    0.85354    0.60813    1.000
    N5833    N        0.97512    0.84676    0.54644    1.000
    Si5834   Si       0.97249    0.79453    0.54500    1.000
    Si5835   Si       0.97695    0.83950    0.58991    1.000
    Si5836   Si       0.93435    0.86452    0.53727    1.000
    N5837    N        0.93347    0.77806    0.54403    1.000
    N5838    N        0.98499    0.79795    0.58650    1.000
    N5839    N        0.95734    0.95805    0.57014    1.000
    Si5840   Si       0.97193    0.96487    0.61156    1.000
    Si5841   Si       0.94409    0.99832    0.55762    1.000
    Si5842   Si       0.94260    0.93947    0.53482    1.000
    Si5843   Si       0.96124    0.78354    0.68011    1.000
    N5844    N        0.96983    0.82527    0.66863    1.000
    Si5845   Si       0.93833    0.84685    0.65088    1.000
    N5846    N        0.93635    0.77633    0.71596    1.000
    N5847    N        0.95809    0.76510    0.63995    1.000
    N5848    N        0.93231    0.88168    0.67526    1.000
    Si5849   Si       0.93635    0.96955    0.67934    1.000
    N5850    N        0.94317    0.00445    0.70315    1.000
    N5851    N        0.94174    0.98011    0.63899    1.000
    Si5852   Si       0.96664    0.90879    0.67027    1.000
    N5853    N        0.98482    0.92959    0.63735    1.000
    N5854    N        0.96095    0.94060    0.69903    1.000
    Si5855   Si       0.98050    0.95819    0.73405    1.000
    Si5856   Si       0.97646    0.86610    0.84495    1.000
    Si5857   Si       0.94633    0.86955    0.77062    1.000
    N5858    N        0.97764    0.79731    0.76600    1.000
    Si5859   Si       0.93556    0.79559    0.75613    1.000
    N5860    N        0.94817    0.83799    0.86418    1.000
    N5861    N        0.98636    0.86241    0.75409    1.000
    N5862    N        0.95429    0.88300    0.81046    1.000
    N5863    N        0.98064    0.95032    0.82797    1.000
    N5864    N        0.94508    0.96919    0.76150    1.000
    Si5865   Si       0.95036    0.97299    0.80596    1.000
    Si5866   Si       0.95290    0.79941    0.88193    1.000
    N5867    N        0.94433    0.79724    0.92611    1.000
    N5868    N        0.97375    0.86846    0.93453    1.000
    Si5869   Si       0.95812    0.83085    0.95360    1.000
    N5870    N        0.93191    0.83226    0.98664    1.000
    N5871    N        0.95409    0.99699    0.94915    1.000
    Si5872   Si       0.97591    0.94452    0.87141    1.000
    N5873    N        0.94496    0.97191    0.88654    1.000
    Si5874   Si       0.94804    0.89757    0.91494    1.000
    N5875    N        0.95372    0.90679    0.87266    1.000
    N5876    N        0.93677    0.93227    0.93851    1.000
    Si5877   Si       0.93378    0.93572    0.98126    1.000
    Si5878   Si       0.94689    0.99612    0.99453    1.000
    N5879    N        0.97048    0.95451    0.99504    1.000
