# CIF file generated by openbabel 3.1.1, see https://openbabel.org
data_I
_chemical_name_common '3.01-88.aims'
_cell_length_a 39.936
_cell_length_b 39.936
_cell_length_c 39.936
_cell_angle_alpha 90
_cell_angle_beta 90
_cell_angle_gamma 90
loop_
    _atom_site_label
    _atom_site_type_symbol
    _atom_site_fract_x
    _atom_site_fract_y
    _atom_site_fract_z
    _atom_site_occupancy
    N0       N        0.01893    0.10536    0.10235    1.000
    N1       N        0.01627    0.11071    0.03018    1.000
    Si2      Si       0.01311    0.08414    0.06461    1.000
    N3       N        0.00353    0.02377    0.09650    1.000
    Si4      Si       0.04171    0.02013    0.07668    1.000
    N5       N        0.05063    0.06016    0.06156    1.000
    N6       N        0.98911    0.20870    0.01658    1.000
    N7       N        0.02856    0.05558    0.20843    1.000
    N8       N        0.03616    0.12729    0.22107    1.000
    Si9      Si       0.03966    0.01264    0.21648    1.000
    N10      N        0.98820    0.11577    0.16508    1.000
    Si11     Si       0.01835    0.20674    0.20631    1.000
    N12      N        0.02597    0.22410    0.13146    1.000
    Si13     Si       0.99813    0.14073    0.20232    1.000
    N14      N        0.98598    0.23023    0.18749    1.000
    N15      N        0.01984    0.17250    0.17902    1.000
    Si16     Si       0.02195    0.18135    0.13619    1.000
    Si17     Si       0.99130    0.24447    0.14550    1.000
    Si18     Si       0.01956    0.03984    0.28227    1.000
    Si19     Si       0.03218    0.04903    0.34499    1.000
    N20      N        0.01696    0.01566    0.32025    1.000
    N21      N        0.03970    0.07084    0.30772    1.000
    N22      N        0.04686    0.01527    0.25821    1.000
    N23      N        0.02369    0.13616    0.28968    1.000
    Si24     Si       0.03256    0.16052    0.36061    1.000
    Si25     Si       0.03654    0.15551    0.25386    1.000
    Si26     Si       0.03258    0.24157    0.36288    1.000
    N27      N        0.99152    0.15561    0.34632    1.000
    N28      N        0.98869    0.24052    0.36244    1.000
    N29      N        0.00701    0.18488    0.24199    1.000
    N30      N        0.99861    0.05728    0.37121    1.000
    N31      N        0.02588    0.03754    0.48965    1.000
    Si32     Si       0.01498    0.05380    0.45092    1.000
    N33      N        0.02171    0.09530    0.43936    1.000
    Si34     Si       0.99623    0.12501    0.42245    1.000
    Si35     Si       0.99005    0.02348    0.39654    1.000
    N36      N        0.04154    0.24718    0.47433    1.000
    Si37     Si       0.01789    0.24889    0.43899    1.000
    N38      N        0.98924    0.21755    0.43015    1.000
    N39      N        0.02349    0.15475    0.40638    1.000
    N40      N        0.01980    0.05920    0.55479    1.000
    Si41     Si       0.01215    0.02418    0.52800    1.000
    Si42     Si       0.00222    0.09884    0.54977    1.000
    N43      N        0.03187    0.13092    0.55523    1.000
    Si44     Si       0.01551    0.17173    0.54609    1.000
    N45      N        0.01512    0.24060    0.59677    1.000
    Si46     Si       0.02388    0.23846    0.51449    1.000
    N47      N        0.04386    0.20081    0.53171    1.000
    N48      N        0.99443    0.17567    0.58705    1.000
    N49      N        0.03443    0.09970    0.62233    1.000
    Si50     Si       0.01385    0.07059    0.64687    1.000
    N51      N        0.03979    0.03816    0.65833    1.000
    N52      N        0.03037    0.05475    0.73332    1.000
    N53      N        0.00112    0.09535    0.68202    1.000
    Si54     Si       0.99428    0.07114    0.71679    1.000
    Si55     Si       0.99427    0.23675    0.73279    1.000
    N56      N        0.02418    0.15951    0.66535    1.000
    N57      N        0.02404    0.13917    0.73497    1.000
    Si58     Si       0.04227    0.18222    0.73657    1.000
    N59      N        0.02369    0.21151    0.71311    1.000
    Si60     Si       0.02261    0.20230    0.67155    1.000
    N61      N        0.99784    0.09035    0.83712    1.000
    Si62     Si       0.04111    0.08756    0.84277    1.000
    Si63     Si       0.02871    0.01085    0.83057    1.000
    N64      N        0.99323    0.01771    0.85440    1.000
    Si65     Si       0.03971    0.01838    0.75613    1.000
    N66      N        0.01523    0.00707    0.78977    1.000
    Si67     Si       0.04302    0.20263    0.82157    1.000
    N68      N        0.03746    0.19084    0.77777    1.000
    N69      N        0.99855    0.21011    0.82052    1.000
    Si70     Si       0.99563    0.18664    0.78429    1.000
    N71      N        0.99136    0.15722    0.85806    1.000
    N72      N        0.03427    0.09641    0.95205    1.000
    Si73     Si       0.99844    0.07325    0.94155    1.000
    N74      N        0.02173    0.03650    0.94510    1.000
    Si75     Si       0.04073    0.25520    0.97201    1.000
    Si76     Si       0.02984    0.15292    0.87447    1.000
    N77      N        0.03372    0.16254    0.91892    1.000
    Si78     Si       0.01564    0.18543    0.99085    1.000
    N79      N        0.00472    0.22209    0.88679    1.000
    Si80     Si       0.00965    0.19933    0.92518    1.000
    N81      N        0.02613    0.21658    0.96062    1.000
    N82      N        0.98919    0.15178    0.98256    1.000
    N83      N        0.01724    0.35226    0.01893    1.000
    Si84     Si       0.00708    0.37299    0.09335    1.000
    Si85     Si       0.99845    0.31906    0.99829    1.000
    N86      N        0.02297    0.28248    0.00196    1.000
    N87      N        0.99477    0.40146    0.06389    1.000
    Si88     Si       0.99532    0.39059    0.02199    1.000
    Si89     Si       0.00938    0.45818    0.01234    1.000
    N90      N        0.02418    0.41738    0.00388    1.000
    N91      N        0.04315    0.48415    0.01937    1.000
    Si92     Si       0.03940    0.34002    0.22443    1.000
    Si93     Si       0.04140    0.30264    0.15839    1.000
    N94      N        0.01503    0.36729    0.19768    1.000
    N95      N        0.00668    0.28552    0.14336    1.000
    Si96     Si       0.03492    0.38025    0.16253    1.000
    N97      N        0.04132    0.30324    0.20301    1.000
    N98      N        0.99165    0.44098    0.18041    1.000
    Si99     Si       0.03377    0.44416    0.19401    1.000
    N100     N        0.01027    0.39611    0.13017    1.000
    N101     N        0.03634    0.43175    0.23549    1.000
    N102     N        0.03928    0.51040    0.24710    1.000
    N103     N        0.01169    0.35004    0.25641    1.000
    Si104    Si       0.99944    0.34315    0.29683    1.000
    Si105    Si       0.99956    0.26598    0.28433    1.000
    N106     N        0.04081    0.26943    0.27116    1.000
    N107     N        0.03182    0.34429    0.32326    1.000
    N108     N        0.04442    0.27339    0.33530    1.000
    Si109    Si       0.04475    0.38518    0.33133    1.000
    N110     N        0.03207    0.45878    0.29836    1.000
    N111     N        0.01454    0.41393    0.34104    1.000
    Si112    Si       0.02738    0.45468    0.34136    1.000
    N113     N        0.99977    0.48142    0.36215    1.000
    Si114    Si       0.99749    0.37431    0.44266    1.000
    N115     N        0.02601    0.31756    0.38253    1.000
    N116     N        0.03990    0.36652    0.43774    1.000
    N117     N        0.99358    0.37975    0.48621    1.000
    N118     N        0.01909    0.48443    0.43305    1.000
    Si119    Si       0.01046    0.50751    0.39614    1.000
    Si120    Si       0.00090    0.42314    0.49578    1.000
    N121     N        0.03829    0.43239    0.47531    1.000
    Si122    Si       0.02719    0.44067    0.43206    1.000
    Si123    Si       0.99468    0.48888    0.47017    1.000
    N124     N        0.99725    0.41217    0.42133    1.000
    N125     N        0.02156    0.32320    0.58259    1.000
    Si126    Si       0.02719    0.28006    0.58106    1.000
    Si127    Si       0.99627    0.34254    0.50955    1.000
    N128     N        0.03814    0.33341    0.50801    1.000
    N129     N        0.03730    0.27303    0.53899    1.000
    Si130    Si       0.00672    0.47572    0.60230    1.000
    N131     N        0.00445    0.49522    0.51395    1.000
    Si132    Si       0.03104    0.41736    0.62030    1.000
    N133     N        0.99142    0.43440    0.61335    1.000
    N134     N        0.04677    0.45407    0.59483    1.000
    N135     N        0.02700    0.30568    0.72728    1.000
    Si136    Si       0.98670    0.30200    0.70831    1.000
    Si137    Si       0.98740    0.37076    0.67311    1.000
    N138     N        0.01860    0.38287    0.64708    1.000
    Si139    Si       0.02546    0.45434    0.72932    1.000
    N140     N        0.03243    0.41995    0.70797    1.000
    N141     N        0.01576    0.49341    0.71293    1.000
    N142     N        0.99884    0.49280    0.64414    1.000
    N143     N        0.02092    0.32802    0.79486    1.000
    Si144    Si       0.03029    0.29392    0.76955    1.000
    Si145    Si       0.03381    0.36801    0.86258    1.000
    N146     N        0.99719    0.26631    0.76512    1.000
    N147     N        0.04095    0.28155    0.86795    1.000
    N148     N        0.99306    0.36685    0.84510    1.000
    Si149    Si       0.98374    0.34494    0.80811    1.000
    N150     N        0.04132    0.38293    0.76064    1.000
    N151     N        0.99414    0.50569    0.84594    1.000
    Si152    Si       0.00078    0.39467    0.75102    1.000
    N153     N        0.99304    0.43894    0.75699    1.000
    Si154    Si       0.04614    0.30113    0.90617    1.000
    N155     N        0.02811    0.34396    0.89967    1.000
    Si156    Si       0.01584    0.36367    0.93692    1.000
    N157     N        0.00370    0.28504    0.91710    1.000
    Si158    Si       0.00220    0.26389    0.87987    1.000
    N159     N        0.99256    0.33414    0.95830    1.000
    N160     N        0.99307    0.39788    0.92724    1.000
    Si161    Si       0.00766    0.42649    0.89715    1.000
    N162     N        0.04129    0.40864    0.87971    1.000
    N163     N        0.01855    0.46206    0.91894    1.000
    Si164    Si       0.02550    0.54032    0.09582    1.000
    N165     N        0.00620    0.53134    0.05795    1.000
    N166     N        0.02716    0.58254    0.10555    1.000
    N167     N        0.01465    0.60636    0.01180    1.000
    Si168    Si       0.04615    0.52203    0.03966    1.000
    Si169    Si       0.03199    0.63696    0.03434    1.000
    Si170    Si       0.99834    0.74184    0.00152    1.000
    N171     N        0.99679    0.65367    0.05364    1.000
    Si172    Si       0.00639    0.69541    0.06564    1.000
    N173     N        0.99482    0.69759    0.10790    1.000
    N174     N        0.99659    0.73290    0.04409    1.000
    Si175    Si       0.03903    0.68290    0.12041    1.000
    N176     N        0.04506    0.65830    0.99602    1.000
    N177     N        0.04863    0.69139    0.07548    1.000
    N178     N        0.00497    0.51973    0.12594    1.000
    N179     N        0.99927    0.59068    0.23789    1.000
    N180     N        0.01823    0.60490    0.17103    1.000
    Si181    Si       0.01832    0.57572    0.20286    1.000
    N182     N        0.00213    0.53493    0.19948    1.000
    Si183    Si       0.99764    0.60218    0.13139    1.000
    Si184    Si       0.99689    0.51409    0.23636    1.000
    N185     N        0.99773    0.73133    0.16822    1.000
    Si186    Si       0.03911    0.71508    0.17967    1.000
    Si187    Si       0.99715    0.71789    0.24704    1.000
    N188     N        0.03966    0.70801    0.22726    1.000
    N189     N        0.01968    0.67618    0.16786    1.000
    Si190    Si       0.04133    0.64014    0.17272    1.000
    Si191    Si       0.02062    0.60680    0.27103    1.000
    N192     N        0.01166    0.60267    0.36504    1.000
    N193     N        0.99451    0.70988    0.28820    1.000
    N194     N        0.01178    0.73441    0.34991    1.000
    N195     N        0.02146    0.65018    0.26448    1.000
    Si196    Si       0.00280    0.66924    0.30149    1.000
    N197     N        0.03752    0.66123    0.32953    1.000
    Si198    Si       0.03608    0.63980    0.36870    1.000
    Si199    Si       0.99136    0.74442    0.31245    1.000
    N200     N        0.04509    0.52975    0.37865    1.000
    N201     N        0.99385    0.58105    0.45913    1.000
    Si202    Si       0.03573    0.58395    0.46533    1.000
    Si203    Si       0.02525    0.56650    0.38970    1.000
    N204     N        0.03886    0.61902    0.49302    1.000
    N205     N        0.02306    0.66509    0.40248    1.000
    Si206    Si       0.04096    0.66280    0.49577    1.000
    N207     N        0.02086    0.56066    0.53891    1.000
    N208     N        0.01285    0.57359    0.61159    1.000
    Si209    Si       0.01801    0.60391    0.52906    1.000
    Si210    Si       0.03514    0.52427    0.51647    1.000
    Si211    Si       0.03852    0.55681    0.57932    1.000
    N212     N        0.02985    0.62663    0.56535    1.000
    N213     N        0.03274    0.51620    0.59503    1.000
    N214     N        0.03377    0.72799    0.57714    1.000
    Si215    Si       0.00593    0.71103    0.54340    1.000
    N216     N        0.00739    0.68780    0.50577    1.000
    Si217    Si       0.00191    0.64993    0.59068    1.000
    Si218    Si       0.00569    0.75534    0.59949    1.000
    N219     N        0.04408    0.54087    0.66195    1.000
    N220     N        0.01371    0.59841    0.67716    1.000
    N221     N        0.02486    0.55899    0.73273    1.000
    Si222    Si       0.03117    0.60350    0.63754    1.000
    Si223    Si       0.01568    0.53202    0.63166    1.000
    Si224    Si       0.04017    0.51902    0.74005    1.000
    Si225    Si       0.04284    0.56937    0.69474    1.000
    Si226    Si       0.98985    0.71642    0.71518    1.000
    N227     N        0.01850    0.64756    0.63162    1.000
    N228     N        0.00845    0.67917    0.72812    1.000
    Si229    Si       0.03303    0.73629    0.66357    1.000
    N230     N        0.00102    0.70667    0.67127    1.000
    Si231    Si       0.98919    0.66855    0.65885    1.000
    Si232    Si       0.01419    0.53015    0.81520    1.000
    Si233    Si       0.02074    0.57895    0.76935    1.000
    N234     N        0.00278    0.61714    0.76081    1.000
    N235     N        0.99295    0.56278    0.80041    1.000
    N236     N        0.03458    0.51120    0.78198    1.000
    Si237    Si       0.03801    0.67080    0.83037    1.000
    N238     N        0.00959    0.65444    0.86031    1.000
    N239     N        0.00630    0.72576    0.83680    1.000
    Si240    Si       0.02492    0.65550    0.76030    1.000
    N241     N        0.01323    0.67657    0.79499    1.000
    Si242    Si       0.04700    0.74144    0.84854    1.000
    Si243    Si       0.04072    0.55964    0.87612    1.000
    N244     N        0.99585    0.56463    0.87693    1.000
    Si245    Si       0.99635    0.52150    0.88522    1.000
    N246     N        0.03776    0.52375    0.89839    1.000
    Si247    Si       0.02520    0.56963    0.99199    1.000
    N248     N        0.04420    0.59153    0.95905    1.000
    N249     N        0.99434    0.54554    0.97969    1.000
    Si250    Si       0.02280    0.63085    0.96975    1.000
    Si251    Si       0.00253    0.65564    0.90382    1.000
    N252     N        0.03493    0.64627    0.92971    1.000
    N253     N        0.01110    0.70944    0.97912    1.000
    Si254    Si       0.00312    0.77253    0.06267    1.000
    N255     N        0.03440    0.85282    0.05493    1.000
    Si256    Si       0.99788    0.84198    0.03431    1.000
    N257     N        0.04357    0.78458    0.05741    1.000
    N258     N        0.99338    0.77230    0.10519    1.000
    N259     N        0.03373    0.82909    0.11848    1.000
    Si260    Si       0.04708    0.89440    0.04540    1.000
    N261     N        0.00907    0.91699    0.04319    1.000
    Si262    Si       0.00445    0.95858    0.05267    1.000
    N263     N        0.03790    0.98623    0.04539    1.000
    N264     N        0.99296    0.95819    0.09503    1.000
    N265     N        0.03353    0.89973    0.12156    1.000
    Si266    Si       0.99726    0.80786    0.12877    1.000
    Si267    Si       0.01623    0.83172    0.19102    1.000
    N268     N        0.00323    0.79735    0.17146    1.000
    N269     N        0.00379    0.82431    0.23442    1.000
    N270     N        0.99365    0.75738    0.23192    1.000
    N271     N        0.01828    0.94985    0.16266    1.000
    N272     N        0.02712    0.88575    0.23992    1.000
    N273     N        0.99624    0.99787    0.21458    1.000
    Si274    Si       0.00354    0.93012    0.12707    1.000
    N275     N        0.01107    0.82101    0.34737    1.000
    N276     N        0.01222    0.77779    0.29502    1.000
    Si277    Si       0.03953    0.79927    0.31983    1.000
    Si278    Si       0.01497    0.78843    0.25406    1.000
    Si279    Si       0.99507    0.85821    0.33395    1.000
    N280     N        0.00884    0.88595    0.30506    1.000
    N281     N        0.01874    0.94402    0.33269    1.000
    Si282    Si       0.03277    0.90686    0.35307    1.000
    Si283    Si       0.03014    0.91028    0.27546    1.000
    Si284    Si       0.03495    0.98286    0.34194    1.000
    N285     N        0.99976    0.94252    0.26993    1.000
    N286     N        0.02610    0.83449    0.46693    1.000
    N287     N        0.03740    0.80436    0.40852    1.000
    Si288    Si       0.00075    0.80754    0.38701    1.000
    Si289    Si       0.03091    0.79327    0.48909    1.000
    N290     N        0.01138    0.76463    0.46003    1.000
    Si291    Si       0.04651    0.76592    0.43148    1.000
    N292     N        0.99688    0.88788    0.36863    1.000
    N293     N        0.99672    0.89099    0.44227    1.000
    Si294    Si       0.01306    0.92094    0.46768    1.000
    N295     N        0.02066    0.99431    0.38361    1.000
    Si296    Si       0.02242    0.95686    0.40746    1.000
    N297     N        0.03339    0.95433    0.44880    1.000
    Si298    Si       0.02323    0.85528    0.50773    1.000
    N299     N        0.00284    0.79197    0.57675    1.000
    Si300    Si       0.04134    0.80897    0.55826    1.000
    N301     N        0.00517    0.81009    0.51886    1.000
    N302     N        0.04628    0.85017    0.54440    1.000
    Si303    Si       0.03479    0.91957    0.59791    1.000
    N304     N        0.02612    0.92252    0.55523    1.000
    N305     N        0.99960    0.99577    0.60892    1.000
    Si306    Si       0.03876    0.98962    0.59030    1.000
    N307     N        0.04320    0.99928    0.54699    1.000
    N308     N        0.99074    0.93781    0.49987    1.000
    Si309    Si       0.03856    0.80690    0.63280    1.000
    N310     N        0.02347    0.76604    0.63633    1.000
    N311     N        0.01743    0.83807    0.65657    1.000
    N312     N        0.00449    0.85404    0.71901    1.000
    Si313    Si       0.03854    0.84513    0.69380    1.000
    Si314    Si       0.98874    0.77283    0.74044    1.000
    N315     N        0.01228    0.75574    0.70983    1.000
    N316     N        0.99553    0.92756    0.62307    1.000
    Si317    Si       0.01753    0.95946    0.71699    1.000
    N318     N        0.02122    0.96910    0.67558    1.000
    N319     N        0.01178    0.91806    0.72867    1.000
    Si320    Si       0.99166    0.96694    0.64470    1.000
    N321     N        0.02501    0.83668    0.80946    1.000
    Si322    Si       0.00462    0.85389    0.84337    1.000
    Si323    Si       0.01657    0.79483    0.80600    1.000
    N324     N        0.01244    0.79976    0.76264    1.000
    Si325    Si       0.01267    0.84482    0.76165    1.000
    Si326    Si       0.00025    0.91109    0.79622    1.000
    N327     N        0.00445    0.89719    0.83618    1.000
    N328     N        0.04097    0.92296    0.78927    1.000
    N329     N        0.04453    0.97258    0.84049    1.000
    N330     N        0.02228    0.77142    0.87762    1.000
    N331     N        0.03132    0.84516    0.87516    1.000
    Si332    Si       0.00806    0.85011    0.91222    1.000
    Si333    Si       0.02149    0.80661    0.96401    1.000
    N334     N        0.03440    0.86949    0.93904    1.000
    Si335    Si       0.02460    0.87703    0.97950    1.000
    N336     N        0.02679    0.77369    0.99336    1.000
    N337     N        0.01652    0.83762    0.99453    1.000
    Si338    Si       0.04594    0.96065    0.88386    1.000
    Si339    Si       0.02075    0.99441    0.94705    1.000
    N340     N        0.99198    0.90345    0.98090    1.000
    Si341    Si       0.99832    0.91371    0.87661    1.000
    N342     N        0.01330    0.97772    0.90567    1.000
    N343     N        0.03933    0.92001    0.88970    1.000
    N344     N        0.09290    0.09321    0.11004    1.000
    N345     N        0.07822    0.10678    0.00882    1.000
    Si346    Si       0.07737    0.06660    0.02724    1.000
    Si347    Si       0.05970    0.12238    0.10374    1.000
    Si348    Si       0.09360    0.05534    0.08820    1.000
    N349     N        0.07578    0.01635    0.10174    1.000
    N350     N        0.06043    0.03696    0.00066    1.000
    Si351    Si       0.05206    0.13504    0.02815    1.000
    N352     N        0.06713    0.14401    0.06721    1.000
    N353     N        0.08553    0.20874    0.10850    1.000
    Si354    Si       0.09385    0.17708    0.07963    1.000
    Si355    Si       0.08825    0.20017    0.00851    1.000
    N356     N        0.06894    0.23957    0.00462    1.000
    Si357    Si       0.05852    0.24419    0.11166    1.000
    N358     N        0.05340    0.17272    0.00598    1.000
    Si359    Si       0.05653    0.08813    0.21446    1.000
    N360     N        0.07167    0.10445    0.17711    1.000
    N361     N        0.09256    0.07399    0.23443    1.000
    Si362    Si       0.10344    0.08977    0.15379    1.000
    N363     N        0.05591    0.22948    0.21348    1.000
    N364     N        0.05742    0.15547    0.13326    1.000
    N365     N        0.08649    0.17479    0.18634    1.000
    Si366    Si       0.05567    0.14377    0.18082    1.000
    Si367    Si       0.09323    0.18512    0.14406    1.000
    Si368    Si       0.08745    0.20162    0.22040    1.000
    N369     N        0.08973    0.11947    0.28982    1.000
    N370     N        0.07040    0.04085    0.36178    1.000
    N371     N        0.05799    0.12464    0.35033    1.000
    N372     N        0.09998    0.04108    0.29524    1.000
    Si373    Si       0.05224    0.11128    0.31039    1.000
    Si374    Si       0.10481    0.07987    0.27615    1.000
    Si375    Si       0.10935    0.04395    0.33665    1.000
    Si376    Si       0.08970    0.21265    0.33787    1.000
    N377     N        0.09968    0.24247    0.30548    1.000
    N378     N        0.07364    0.17671    0.25500    1.000
    N379     N        0.10590    0.23780    0.37128    1.000
    N380     N        0.04855    0.20148    0.35191    1.000
    Si381    Si       0.09345    0.10772    0.36944    1.000
    Si382    Si       0.08393    0.04196    0.40228    1.000
    Si383    Si       0.06957    0.04104    0.47896    1.000
    N384     N        0.09611    0.08423    0.40712    1.000
    N385     N        0.08082    0.08175    0.47466    1.000
    Si386    Si       0.06466    0.09757    0.43470    1.000
    Si387    Si       0.10351    0.11847    0.47942    1.000
    N388     N        0.05307    0.03855    0.43218    1.000
    Si389    Si       0.05041    0.16760    0.43690    1.000
    N390     N        0.04956    0.25270    0.40441    1.000
    N391     N        0.08201    0.19471    0.42333    1.000
    Si392    Si       0.08851    0.23415    0.41081    1.000
    N393     N        0.07835    0.13735    0.44773    1.000
    N394     N        0.08255    0.08150    0.57112    1.000
    N395     N        0.08514    0.03944    0.52472    1.000
    Si396    Si       0.06113    0.04284    0.56168    1.000
    Si397    Si       0.06023    0.11673    0.58736    1.000
    N398     N        0.07445    0.01804    0.59566    1.000
    Si399    Si       0.08658    0.20341    0.54388    1.000
    N400     N        0.08314    0.21179    0.58673    1.000
    Si401    Si       0.05679    0.23461    0.61209    1.000
    N402     N        0.07496    0.14573    0.61520    1.000
    Si403    Si       0.10055    0.17411    0.59898    1.000
    Si404    Si       0.07781    0.03359    0.63700    1.000
    N405     N        0.07042    0.11055    0.68296    1.000
    N406     N        0.10057    0.04807    0.70815    1.000
    Si407    Si       0.07542    0.06052    0.73934    1.000
    Si408    Si       0.06431    0.12823    0.72185    1.000
    Si409    Si       0.10365    0.08326    0.68133    1.000
    N410     N        0.10618    0.06420    0.64374    1.000
    Si411    Si       0.05101    0.12814    0.64937    1.000
    N412     N        0.09911    0.23534    0.71247    1.000
    N413     N        0.07943    0.16824    0.72534    1.000
    Si414    Si       0.08903    0.24720    0.67130    1.000
    N415     N        0.05748    0.22347    0.65258    1.000
    N416     N        0.07611    0.03427    0.77455    1.000
    N417     N        0.06585    0.11170    0.81577    1.000
    Si418    Si       0.09225    0.03964    0.81321    1.000
    N419     N        0.05429    0.04638    0.83613    1.000
    Si420    Si       0.09862    0.10802    0.78737    1.000
    N421     N        0.08401    0.10062    0.74884    1.000
    Si422    Si       0.08890    0.14656    0.83466    1.000
    N423     N        0.07485    0.23102    0.83230    1.000
    N424     N        0.05737    0.17145    0.84680    1.000
    N425     N        0.09808    0.06829    0.96013    1.000
    Si426    Si       0.10365    0.10996    0.97260    1.000
    Si427    Si       0.05569    0.05834    0.96144    1.000
    N428     N        0.09347    0.12732    0.93372    1.000
    Si429    Si       0.05209    0.12396    0.92207    1.000
    N430     N        0.04367    0.11179    0.87982    1.000
    N431     N        0.07763    0.30874    0.02931    1.000
    Si432    Si       0.07483    0.35768    0.11186    1.000
    Si433    Si       0.05546    0.34595    0.03922    1.000
    N434     N        0.08280    0.37474    0.02099    1.000
    Si435    Si       0.05369    0.27110    0.03205    1.000
    N436     N        0.04508    0.35429    0.08077    1.000
    N437     N        0.04548    0.25531    0.07112    1.000
    N438     N        0.09308    0.39879    0.11336    1.000
    N439     N        0.08064    0.34544    0.24200    1.000
    N440     N        0.07137    0.27600    0.13905    1.000
    Si441    Si       0.05341    0.27052    0.22951    1.000
    N442     N        0.09435    0.27919    0.23846    1.000
    N443     N        0.05299    0.34373    0.14803    1.000
    Si444    Si       0.09694    0.41905    0.15400    1.000
    N445     N        0.05210    0.48301    0.18574    1.000
    N446     N        0.05846    0.41626    0.17068    1.000
    Si447    Si       0.09455    0.49089    0.17016    1.000
    Si448    Si       0.07075    0.27719    0.29942    1.000
    Si449    Si       0.08654    0.35372    0.28442    1.000
    N450     N        0.08774    0.31759    0.30997    1.000
    N451     N        0.06871    0.37193    0.36599    1.000
    Si452    Si       0.05481    0.31641    0.34689    1.000
    Si453    Si       0.05490    0.42968    0.27364    1.000
    N454     N        0.06829    0.39428    0.29366    1.000
    N455     N        0.06582    0.46637    0.35659    1.000
    N456     N        0.08847    0.46029    0.27123    1.000
    Si457    Si       0.05796    0.49048    0.28051    1.000
    N458     N        0.08596    0.30396    0.37699    1.000
    Si459    Si       0.05949    0.34796    0.47168    1.000
    N460     N        0.06400    0.30818    0.45005    1.000
    Si461    Si       0.07799    0.27072    0.46929    1.000
    Si462    Si       0.05605    0.29737    0.40755    1.000
    N463     N        0.08451    0.38053    0.48807    1.000
    Si464    Si       0.06780    0.38228    0.40953    1.000
    N465     N        0.06182    0.42463    0.41003    1.000
    Si466    Si       0.08928    0.44404    0.38326    1.000
    Si467    Si       0.07789    0.42517    0.49381    1.000
    N468     N        0.08491    0.33220    0.55875    1.000
    Si469    Si       0.06397    0.30546    0.52954    1.000
    N470     N        0.06445    0.27712    0.60469    1.000
    N471     N        0.09445    0.28622    0.50606    1.000
    Si472    Si       0.05746    0.34930    0.58633    1.000
    Si473    Si       0.07154    0.42591    0.57272    1.000
    N474     N        0.07614    0.44228    0.53282    1.000
    Si475    Si       0.06957    0.49348    0.59940    1.000
    Si476    Si       0.10172    0.47896    0.53740    1.000
    N477     N        0.04952    0.39220    0.58821    1.000
    N478     N        0.07507    0.34340    0.62638    1.000
    N479     N        0.09436    0.30501    0.72992    1.000
    N480     N        0.06229    0.35782    0.69462    1.000
    N481     N        0.07533    0.28838    0.66943    1.000
    Si482    Si       0.06043    0.31452    0.70289    1.000
    Si483    Si       0.08716    0.30265    0.63040    1.000
    Si484    Si       0.06112    0.37322    0.65368    1.000
    N485     N        0.07854    0.48977    0.64003    1.000
    N486     N        0.06789    0.41786    0.64882    1.000
    Si487    Si       0.09894    0.45033    0.73372    1.000
    Si488    Si       0.09315    0.45224    0.65832    1.000
    N489     N        0.09237    0.47125    0.69636    1.000
    Si490    Si       0.06186    0.39040    0.72218    1.000
    N491     N        0.10056    0.40852    0.72476    1.000
    Si492    Si       0.06721    0.27466    0.83398    1.000
    N493     N        0.06809    0.28365    0.78924    1.000
    N494     N        0.06616    0.36594    0.83486    1.000
    Si495    Si       0.05645    0.35615    0.79208    1.000
    N496     N        0.09823    0.34355    0.78650    1.000
    N497     N        0.06294    0.45981    0.75464    1.000
    Si498    Si       0.06938    0.43626    0.86309    1.000
    Si499    Si       0.06060    0.47891    0.79482    1.000
    N500     N        0.05778    0.44837    0.82296    1.000
    N501     N        0.05526    0.37299    0.95447    1.000
    N502     N        0.08639    0.31896    0.90595    1.000
    Si503    Si       0.08778    0.35392    0.93411    1.000
    N504     N        0.06384    0.27710    0.94293    1.000
    Si505    Si       0.10515    0.29034    0.94132    1.000
    Si506    Si       0.05380    0.48878    0.91583    1.000
    Si507    Si       0.06193    0.39895    0.98918    1.000
    N508     N        0.08511    0.43507    0.98173    1.000
    N509     N        0.07900    0.47180    0.88499    1.000
    Si510    Si       0.07307    0.47405    0.99076    1.000
    N511     N        0.07241    0.49640    0.95262    1.000
    N512     N        0.06648    0.53106    0.07862    1.000
    Si513    Si       0.06198    0.61038    0.09943    1.000
    N514     N        0.05988    0.55364    0.01231    1.000
    Si515    Si       0.09560    0.54696    0.10562    1.000
    N516     N        0.06584    0.62508    0.05949    1.000
    Si517    Si       0.10063    0.56955    0.00244    1.000
    N518     N        0.09555    0.58848    0.11660    1.000
    N519     N        0.10419    0.61230    0.00269    1.000
    Si520    Si       0.10249    0.63660    0.03816    1.000
    Si521    Si       0.08188    0.70693    0.05397    1.000
    N522     N        0.06880    0.72729    0.01760    1.000
    N523     N        0.06129    0.56345    0.21015    1.000
    Si524    Si       0.05806    0.51937    0.20995    1.000
    Si525    Si       0.08499    0.58173    0.24162    1.000
    N526     N        0.09881    0.52087    0.13986    1.000
    N527     N        0.10327    0.51202    0.20531    1.000
    N528     N        0.06498    0.71193    0.14118    1.000
    N529     N        0.06588    0.64796    0.20609    1.000
    N530     N        0.07409    0.74522    0.19060    1.000
    Si531    Si       0.09733    0.73813    0.15499    1.000
    Si532    Si       0.05147    0.66988    0.24070    1.000
    N533     N        0.04772    0.64125    0.12600    1.000
    Si534    Si       0.06913    0.74187    0.23416    1.000
    Si535    Si       0.08048    0.55661    0.29697    1.000
    N536     N        0.06494    0.51996    0.30973    1.000
    N537     N        0.05777    0.58854    0.27556    1.000
    N538     N        0.10135    0.57492    0.33011    1.000
    Si539    Si       0.07257    0.50872    0.35145    1.000
    N540     N        0.10326    0.54833    0.26076    1.000
    Si541    Si       0.10545    0.61554    0.34757    1.000
    Si542    Si       0.07858    0.67587    0.31691    1.000
    N543     N        0.08169    0.67551    0.27350    1.000
    N544     N        0.08226    0.70898    0.34391    1.000
    Si545    Si       0.05339    0.73779    0.36132    1.000
    N546     N        0.10853    0.73214    0.25067    1.000
    N547     N        0.07451    0.62181    0.37684    1.000
    Si548    Si       0.09045    0.53689    0.48885    1.000
    Si549    Si       0.08734    0.59679    0.41104    1.000
    N550     N        0.04934    0.54557    0.47935    1.000
    N551     N        0.04939    0.58158    0.42328    1.000
    Si552    Si       0.05328    0.69005    0.41903    1.000
    Si553    Si       0.08926    0.70123    0.48499    1.000
    N554     N        0.05491    0.68621    0.46222    1.000
    N555     N        0.05423    0.73316    0.40512    1.000
    N556     N        0.09542    0.68437    0.40877    1.000
    N557     N        0.07608    0.57497    0.57211    1.000
    Si558    Si       0.07021    0.62123    0.58204    1.000
    N559     N        0.10447    0.62798    0.55214    1.000
    N560     N        0.07751    0.51322    0.52392    1.000
    N561     N        0.07478    0.66708    0.59141    1.000
    Si562    Si       0.06900    0.71191    0.59603    1.000
    N563     N        0.07433    0.68052    0.52173    1.000
    Si564    Si       0.10211    0.67170    0.55438    1.000
    N565     N        0.10385    0.73774    0.50250    1.000
    N566     N        0.10485    0.72074    0.57507    1.000
    N567     N        0.07109    0.61369    0.62590    1.000
    N568     N        0.07706    0.53118    0.71736    1.000
    N569     N        0.07963    0.59212    0.69193    1.000
    Si570    Si       0.10032    0.61682    0.66156    1.000
    Si571    Si       0.08201    0.51383    0.67699    1.000
    N572     N        0.07227    0.74528    0.68470    1.000
    N573     N        0.05776    0.70660    0.63824    1.000
    N574     N        0.09082    0.69423    0.71690    1.000
    Si575    Si       0.08785    0.70348    0.67250    1.000
    Si576    Si       0.10014    0.72895    0.73877    1.000
    N577     N        0.09247    0.65835    0.66242    1.000
    Si578    Si       0.06183    0.66116    0.63262    1.000
    Si579    Si       0.08270    0.54643    0.80820    1.000
    Si580    Si       0.07788    0.61915    0.79240    1.000
    N581     N        0.06302    0.57939    0.78573    1.000
    N582     N        0.05090    0.54605    0.83661    1.000
    N583     N        0.09631    0.50441    0.79987    1.000
    N584     N        0.06965    0.63800    0.83021    1.000
    N585     N        0.06567    0.70356    0.83220    1.000
    N586     N        0.06676    0.64566    0.75842    1.000
    Si587    Si       0.10434    0.70933    0.81348    1.000
    N588     N        0.07041    0.75543    0.75251    1.000
    Si589    Si       0.10258    0.65427    0.85412    1.000
    Si590    Si       0.10505    0.66285    0.74601    1.000
    Si591    Si       0.08083    0.58913    0.93576    1.000
    N592     N        0.07514    0.58274    0.89244    1.000
    N593     N        0.10333    0.62544    0.93889    1.000
    N594     N        0.10320    0.55985    0.95943    1.000
    Si595    Si       0.09745    0.71159    0.90912    1.000
    N596     N        0.07424    0.74015    0.88927    1.000
    Si597    Si       0.07654    0.65743    0.93023    1.000
    N598     N        0.08635    0.67201    0.88977    1.000
    Si599    Si       0.05451    0.69912    0.98632    1.000
    N600     N        0.07783    0.70002    0.94889    1.000
    N601     N        0.09374    0.81404    0.08611    1.000
    Si602    Si       0.06174    0.77175    0.01906    1.000
    N603     N        0.09482    0.79618    0.00371    1.000
    Si604    Si       0.05208    0.82073    0.07911    1.000
    N605     N        0.05968    0.88911    0.00389    1.000
    N606     N        0.07312    0.92177    0.06840    1.000
    Si607    Si       0.07309    0.91550    0.11069    1.000
    N608     N        0.09885    0.96595    0.01398    1.000
    Si609    Si       0.06290    0.99146    0.00572    1.000
    Si610    Si       0.10169    0.98285    0.11267    1.000
    Si611    Si       0.10723    0.94115    0.05206    1.000
    N612     N        0.09239    0.85243    0.23686    1.000
    Si613    Si       0.06308    0.87674    0.21440    1.000
    Si614    Si       0.05050    0.86343    0.13972    1.000
    N615     N        0.05242    0.85094    0.18009    1.000
    N616     N        0.09138    0.88055    0.13120    1.000
    Si617    Si       0.10877    0.98348    0.21564    1.000
    N618     N        0.08069    0.95148    0.13157    1.000
    N619     N        0.06934    0.98742    0.19739    1.000
    Si620    Si       0.06099    0.94978    0.17270    1.000
    N621     N        0.07626    0.91454    0.19722    1.000
    Si622    Si       0.08055    0.86971    0.31006    1.000
    N623     N        0.06701    0.77619    0.34365    1.000
    Si624    Si       0.08170    0.81462    0.26122    1.000
    N625     N        0.06163    0.83106    0.29591    1.000
    N626     N        0.06276    0.87668    0.34875    1.000
    Si627    Si       0.10530    0.78697    0.35838    1.000
    N628     N        0.05735    0.78235    0.24749    1.000
    N629     N        0.07083    0.90769    0.28620    1.000
    N630     N        0.07541    0.98225    0.32191    1.000
    Si631    Si       0.07972    0.00195    0.28314    1.000
    N632     N        0.09951    0.97059    0.25848    1.000
    Si633    Si       0.10649    0.93297    0.27845    1.000
    N634     N        0.10337    0.82512    0.38266    1.000
    N635     N        0.07122    0.78807    0.46092    1.000
    N636     N        0.06825    0.86459    0.42568    1.000
    Si637    Si       0.08356    0.86381    0.38424    1.000
    Si638    Si       0.05928    0.82559    0.43903    1.000
    N639     N        0.09657    0.93224    0.44730    1.000
    Si640    Si       0.07878    0.88978    0.45803    1.000
    Si641    Si       0.09201    0.93148    0.40308    1.000
    Si642    Si       0.07123    0.96227    0.46679    1.000
    N643     N        0.09366    0.00194    0.47459    1.000
    N644     N        0.04995    0.93018    0.38859    1.000
    N645     N        0.04421    0.89481    0.48928    1.000
    N646     N        0.06085    0.81770    0.59600    1.000
    Si647    Si       0.07802    0.86225    0.57305    1.000
    N648     N        0.06267    0.78905    0.52418    1.000
    Si649    Si       0.10178    0.81538    0.61176    1.000
    Si650    Si       0.09497    0.77969    0.49675    1.000
    N651     N        0.06017    0.88633    0.60459    1.000
    N652     N        0.09140    0.89679    0.54684    1.000
    N653     N        0.07154    0.95337    0.50914    1.000
    Si654    Si       0.08427    0.99534    0.52231    1.000
    Si655    Si       0.05773    0.91577    0.52602    1.000
    N656     N        0.05510    0.95504    0.60911    1.000
    N657     N        0.06212    0.81255    0.71176    1.000
    N658     N        0.07332    0.87115    0.68408    1.000
    N659     N        0.08209    0.80188    0.65121    1.000
    Si660    Si       0.05084    0.76941    0.71664    1.000
    Si661    Si       0.08628    0.83339    0.74336    1.000
    Si662    Si       0.10076    0.83255    0.67910    1.000
    Si663    Si       0.08348    0.88507    0.64169    1.000
    Si664    Si       0.08841    0.96822    0.73954    1.000
    N665     N        0.08652    0.99703    0.66131    1.000
    Si666    Si       0.08997    0.96122    0.63522    1.000
    N667     N        0.09645    0.92407    0.65757    1.000
    Si668    Si       0.09899    0.90731    0.69734    1.000
    N669     N        0.05122    0.98754    0.72688    1.000
    N670     N        0.07886    0.92692    0.72803    1.000
    Si671    Si       0.04699    0.00283    0.68381    1.000
    Si672    Si       0.06686    0.84502    0.80023    1.000
    N673     N        0.09019    0.81373    0.78245    1.000
    N674     N        0.08876    0.86561    0.82883    1.000
    Si675    Si       0.08452    0.77176    0.79102    1.000
    N676     N        0.05522    0.86273    0.76003    1.000
    Si677    Si       0.07524    0.84336    0.86774    1.000
    N678     N        0.05126    0.77132    0.81739    1.000
    N679     N        0.08647    0.96665    0.78119    1.000
    Si680    Si       0.06612    0.94654    0.81294    1.000
    N681     N        0.09951    0.93514    0.83955    1.000
    Si682    Si       0.04834    0.90556    0.74895    1.000
    N683     N        0.10670    0.84883    0.96024    1.000
    N684     N        0.05742    0.80249    0.93863    1.000
    N685     N        0.09289    0.80655    0.88113    1.000
    Si686    Si       0.09412    0.80592    0.96214    1.000
    N687     N        0.09236    0.87062    0.89546    1.000
    Si688    Si       0.05976    0.78159    0.89898    1.000
    Si689    Si       0.09454    0.88634    0.97767    1.000
    Si690    Si       0.06171    0.89250    0.91474    1.000
    N691     N        0.05921    0.97877    0.96375    1.000
    N692     N        0.08615    0.97205    0.89796    1.000
    Si693    Si       0.08820    0.95693    0.93957    1.000
    N694     N        0.08374    0.91473    0.94634    1.000
    Si695    Si       0.15226    0.05531    0.06606    1.000
    N696     N        0.13500    0.04289    0.10324    1.000
    Si697    Si       0.13401    0.11462    0.10538    1.000
    N698     N        0.11261    0.05997    0.04842    1.000
    N699     N        0.16417    0.09599    0.08184    1.000
    N700     N        0.12571    0.15684    0.10307    1.000
    Si701    Si       0.15190    0.21761    0.05015    1.000
    Si702    Si       0.15674    0.18551    0.11598    1.000
    N703     N        0.11114    0.19650    0.04457    1.000
    N704     N        0.14631    0.25464    0.06870    1.000
    N705     N        0.13765    0.01542    0.22343    1.000
    Si706    Si       0.14302    0.03206    0.14291    1.000
    N707     N        0.14152    0.10952    0.14804    1.000
    Si708    Si       0.12777    0.05642    0.21523    1.000
    N709     N        0.15899    0.08434    0.21389    1.000
    N710     N        0.11514    0.05169    0.17149    1.000
    Si711    Si       0.16298    0.10967    0.24802    1.000
    N712     N        0.12679    0.22325    0.21923    1.000
    N713     N        0.13428    0.20012    0.15005    1.000
    Si714    Si       0.15203    0.20693    0.18776    1.000
    N715     N        0.12307    0.08248    0.34630    1.000
    N716     N        0.14887    0.08143    0.27674    1.000
    N717     N        0.13085    0.01072    0.35017    1.000
    Si718    Si       0.16406    0.09169    0.35541    1.000
    N719     N        0.11138    0.17921    0.31906    1.000
    N720     N        0.14034    0.14799    0.25574    1.000
    Si721    Si       0.13770    0.16045    0.34912    1.000
    Si722    Si       0.14234    0.25073    0.30874    1.000
    Si723    Si       0.10649    0.15849    0.27881    1.000
    Si724    Si       0.13891    0.07797    0.42813    1.000
    N725     N        0.13802    0.11661    0.45150    1.000
    N726     N        0.14904    0.05387    0.46339    1.000
    N727     N        0.12128    0.02405    0.41650    1.000
    Si728    Si       0.13201    0.01353    0.45702    1.000
    N729     N        0.10903    0.26065    0.43960    1.000
    N730     N        0.14608    0.18050    0.43505    1.000
    Si731    Si       0.11061    0.15958    0.42255    1.000
    N732     N        0.16009    0.19182    0.37045    1.000
    N733     N        0.11378    0.14403    0.38176    1.000
    N734     N        0.14665    0.03372    0.59672    1.000
    N735     N        0.15002    0.05610    0.53413    1.000
    N736     N        0.11650    0.11236    0.51890    1.000
    Si737    Si       0.11084    0.07480    0.53794    1.000
    Si738    Si       0.13838    0.14192    0.53786    1.000
    N739     N        0.11856    0.22553    0.52434    1.000
    N740     N        0.15190    0.16426    0.50263    1.000
    Si741    Si       0.15567    0.20439    0.51804    1.000
    N742     N        0.14068    0.17706    0.61760    1.000
    N743     N        0.10531    0.16514    0.55565    1.000
    Si744    Si       0.14814    0.05171    0.63640    1.000
    N745     N        0.13597    0.10795    0.69178    1.000
    N746     N        0.15181    0.01861    0.66502    1.000
    Si747    Si       0.11640    0.01175    0.69086    1.000
    N748     N        0.12649    0.23946    0.64941    1.000
    Si749    Si       0.11321    0.19617    0.72231    1.000
    Si750    Si       0.16059    0.14308    0.70200    1.000
    N751     N        0.13649    0.17799    0.69065    1.000
    Si752    Si       0.14753    0.20068    0.65317    1.000
    N753     N        0.12018    0.07308    0.80539    1.000
    Si754    Si       0.16098    0.07743    0.81606    1.000
    N755     N        0.11785    0.13447    0.86317    1.000
    N756     N        0.12150    0.14414    0.80227    1.000
    Si757    Si       0.15406    0.14722    0.83797    1.000
    N758     N        0.13725    0.22255    0.81510    1.000
    Si759    Si       0.14951    0.16459    0.77591    1.000
    N760     N        0.13955    0.20068    0.75525    1.000
    Si761    Si       0.15664    0.23563    0.77613    1.000
    Si762    Si       0.11581    0.23710    0.85082    1.000
    Si763    Si       0.15647    0.05701    0.89099    1.000
    Si764    Si       0.13443    0.04619    0.95448    1.000
    N765     N        0.13477    0.02791    0.91498    1.000
    N766     N        0.14858    0.09453    0.90863    1.000
    N767     N        0.14035    0.12743    0.98552    1.000
    N768     N        0.14261    0.01628    0.98668    1.000
    Si769    Si       0.12420    0.12977    0.90498    1.000
    N770     N        0.10860    0.21526    0.88829    1.000
    Si771    Si       0.15194    0.20248    0.89792    1.000
    N772     N        0.11970    0.19772    0.97776    1.000
    N773     N        0.14588    0.16386    0.92100    1.000
    Si774    Si       0.14325    0.23428    0.97340    1.000
    Si775    Si       0.14814    0.16592    0.96364    1.000
    Si776    Si       0.14958    0.34966    0.09388    1.000
    N777     N        0.14303    0.33232    0.02245    1.000
    Si778    Si       0.12720    0.37313    0.02579    1.000
    Si779    Si       0.11275    0.30758    0.00283    1.000
    N780     N        0.11063    0.33151    0.10689    1.000
    N781     N        0.14100    0.38176    0.06671    1.000
    Si782    Si       0.16331    0.28151    0.09590    1.000
    Si783    Si       0.12229    0.41783    0.08456    1.000
    Si784    Si       0.13069    0.47056    0.02793    1.000
    N785     N        0.11246    0.44378    0.05390    1.000
    N786     N        0.15581    0.43158    0.10930    1.000
    N787     N        0.15894    0.49686    0.04874    1.000
    N788     N        0.10779    0.49901    0.00289    1.000
    Si789    Si       0.10746    0.30256    0.14055    1.000
    N790     N        0.14183    0.27863    0.13508    1.000
    N791     N        0.14731    0.30043    0.21792    1.000
    Si792    Si       0.14275    0.35902    0.16497    1.000
    N793     N        0.11336    0.33003    0.17400    1.000
    Si794    Si       0.13529    0.26340    0.23518    1.000
    Si795    Si       0.10692    0.31854    0.21795    1.000
    N796     N        0.12571    0.39652    0.17766    1.000
    N797     N        0.11502    0.45775    0.15483    1.000
    Si798    Si       0.15853    0.45509    0.14516    1.000
    Si799    Si       0.15629    0.40570    0.20629    1.000
    N800     N        0.13999    0.42020    0.24278    1.000
    Si801    Si       0.14285    0.32965    0.31562    1.000
    N802     N        0.12850    0.36254    0.28942    1.000
    N803     N        0.14313    0.35059    0.35448    1.000
    N804     N        0.14757    0.28764    0.33563    1.000
    Si805    Si       0.11929    0.27940    0.36902    1.000
    Si806    Si       0.11170    0.37459    0.36772    1.000
    N807     N        0.16110    0.26505    0.27159    1.000
    N808     N        0.14453    0.43634    0.30309    1.000
    Si809    Si       0.13155    0.45650    0.26537    1.000
    Si810    Si       0.15110    0.39873    0.28070    1.000
    Si811    Si       0.15606    0.43230    0.34545    1.000
    N812     N        0.15136    0.49170    0.25219    1.000
    N813     N        0.11691    0.41811    0.36244    1.000
    N814     N        0.14931    0.32481    0.45231    1.000
    N815     N        0.15233    0.28628    0.39705    1.000
    Si816    Si       0.14796    0.27853    0.44078    1.000
    Si817    Si       0.14720    0.36231    0.43316    1.000
    N818     N        0.11021    0.37148    0.41419    1.000
    N819     N        0.16085    0.27657    0.48876    1.000
    Si820    Si       0.12666    0.37492    0.49890    1.000
    Si821    Si       0.15116    0.43757    0.49417    1.000
    Si822    Si       0.12298    0.47766    0.45008    1.000
    N823     N        0.15484    0.39112    0.46756    1.000
    Si824    Si       0.14237    0.49115    0.38237    1.000
    N825     N        0.11025    0.44562    0.47605    1.000
    N826     N        0.11485    0.47040    0.40837    1.000
    N827     N        0.16568    0.46758    0.45883    1.000
    N828     N        0.14961    0.28851    0.55627    1.000
    N829     N        0.14008    0.33884    0.51792    1.000
    N830     N        0.14237    0.35728    0.58863    1.000
    Si831    Si       0.12895    0.32833    0.55722    1.000
    Si832    Si       0.13182    0.26791    0.52053    1.000
    N833     N        0.13722    0.40293    0.52661    1.000
    Si834    Si       0.14482    0.39988    0.56779    1.000
    Si835    Si       0.12847    0.46057    0.60201    1.000
    N836     N        0.14397    0.46950    0.52721    1.000
    N837     N        0.11289    0.42229    0.58707    1.000
    N838     N        0.10657    0.48789    0.58030    1.000
    N839     N        0.15485    0.27574    0.69430    1.000
    Si840    Si       0.12092    0.27188    0.72087    1.000
    Si841    Si       0.15474    0.27418    0.65035    1.000
    Si842    Si       0.13944    0.35120    0.63375    1.000
    N843     N        0.13091    0.30874    0.63539    1.000
    N844     N        0.13337    0.37249    0.67109    1.000
    N845     N        0.15415    0.37058    0.74186    1.000
    N846     N        0.15883    0.43376    0.70433    1.000
    N847     N        0.13317    0.44827    0.64356    1.000
    Si848    Si       0.13936    0.39445    0.70853    1.000
    N849     N        0.13731    0.27383    0.76425    1.000
    N850     N        0.13180    0.34566    0.86037    1.000
    Si851    Si       0.13767    0.36099    0.78048    1.000
    Si852    Si       0.10711    0.37664    0.84104    1.000
    N853     N        0.16510    0.33083    0.79847    1.000
    Si854    Si       0.10356    0.30215    0.77216    1.000
    N855     N        0.10789    0.28073    0.85138    1.000
    N856     N        0.13116    0.46232    0.75819    1.000
    N857     N        0.13633    0.39463    0.81157    1.000
    Si858    Si       0.13679    0.48834    0.79278    1.000
    N859     N        0.15757    0.46919    0.82557    1.000
    N860     N        0.10683    0.41164    0.86774    1.000
    Si861    Si       0.16067    0.42638    0.83395    1.000
    N862     N        0.10877    0.33109    0.96555    1.000
    N863     N        0.12478    0.27230    0.97855    1.000
    Si864    Si       0.14387    0.35791    0.95888    1.000
    N865     N        0.12556    0.37517    0.92498    1.000
    Si866    Si       0.12044    0.31015    0.88155    1.000
    N867     N        0.13995    0.28902    0.91368    1.000
    Si868    Si       0.16316    0.47322    0.92007    1.000
    Si869    Si       0.13695    0.40802    0.89877    1.000
    N870     N        0.15457    0.45492    0.99486    1.000
    Si871    Si       0.12743    0.42965    0.97134    1.000
    N872     N        0.13826    0.39133    0.98716    1.000
    N873     N        0.13733    0.43980    0.92954    1.000
    N874     N        0.14257    0.51060    0.93697    1.000
    N875     N        0.13126    0.56008    0.03055    1.000
    N876     N        0.13967    0.54039    0.09793    1.000
    Si877    Si       0.15632    0.53863    0.05804    1.000
    N878     N        0.14514    0.62543    0.05160    1.000
    Si879    Si       0.16023    0.59247    0.02786    1.000
    N880     N        0.16534    0.60974    0.11990    1.000
    Si881    Si       0.14191    0.69574    0.01134    1.000
    Si882    Si       0.15244    0.71206    0.07813    1.000
    N883     N        0.15311    0.67668    0.10464    1.000
    N884     N        0.11284    0.73294    0.07455    1.000
    N885     N        0.10871    0.68014    0.03550    1.000
    Si886    Si       0.12951    0.60175    0.14085    1.000
    Si887    Si       0.14313    0.52832    0.13963    1.000
    N888     N        0.11448    0.60964    0.23087    1.000
    N889     N        0.14658    0.56412    0.16338    1.000
    Si890    Si       0.13186    0.52608    0.23706    1.000
    Si891    Si       0.15428    0.59709    0.24201    1.000
    N892     N        0.16158    0.55587    0.22919    1.000
    Si893    Si       0.15975    0.70043    0.19717    1.000
    N894     N        0.13496    0.71663    0.16277    1.000
    Si895    Si       0.10931    0.64130    0.20394    1.000
    N896     N        0.11794    0.63925    0.16112    1.000
    Si897    Si       0.14001    0.67301    0.14514    1.000
    N898     N        0.12976    0.67686    0.21913    1.000
    Si899    Si       0.15779    0.74951    0.13956    1.000
    Si900    Si       0.12734    0.55725    0.35976    1.000
    N901     N        0.11644    0.51402    0.35551    1.000
    N902     N        0.14125    0.60848    0.37117    1.000
    Si903    Si       0.11938    0.69051    0.25976    1.000
    N904     N        0.15446    0.68777    0.28752    1.000
    Si905    Si       0.15139    0.66666    0.32689    1.000
    N906     N        0.11181    0.64984    0.32351    1.000
    N907     N        0.15064    0.68843    0.36533    1.000
    Si908    Si       0.12871    0.60114    0.47420    1.000
    Si909    Si       0.13827    0.54426    0.43053    1.000
    N910     N        0.11569    0.51953    0.46005    1.000
    N911     N        0.11254    0.56153    0.40239    1.000
    N912     N        0.15980    0.57862    0.44793    1.000
    Si913    Si       0.16247    0.60977    0.41319    1.000
    N914     N        0.10593    0.61949    0.44240    1.000
    Si915    Si       0.11177    0.70876    0.37630    1.000
    N916     N        0.12202    0.75200    0.37924    1.000
    Si917    Si       0.16379    0.75552    0.39620    1.000
    Si918    Si       0.12027    0.66054    0.43323    1.000
    N919     N        0.16120    0.65079    0.42308    1.000
    N920     N        0.12427    0.67766    0.47231    1.000
    N921     N        0.14905    0.57879    0.55547    1.000
    N922     N        0.10832    0.57428    0.50037    1.000
    Si923    Si       0.10775    0.58589    0.54211    1.000
    N924     N        0.15437    0.62566    0.49854    1.000
    Si925    Si       0.12778    0.72493    0.53516    1.000
    N926     N        0.14285    0.68328    0.53783    1.000
    Si927    Si       0.13965    0.74644    0.59071    1.000
    N928     N        0.15516    0.75627    0.55263    1.000
    N929     N        0.16214    0.65396    0.60143    1.000
    Si930    Si       0.16048    0.66994    0.49680    1.000
    N931     N        0.13982    0.56977    0.73178    1.000
    N932     N        0.13994    0.60298    0.65041    1.000
    N933     N        0.11783    0.54082    0.66873    1.000
    Si934    Si       0.15384    0.56045    0.65078    1.000
    Si935    Si       0.10801    0.56128    0.70678    1.000
    N936     N        0.14137    0.74710    0.73814    1.000
    N937     N        0.13887    0.63971    0.73019    1.000
    N938     N        0.12412    0.72331    0.65803    1.000
    N939     N        0.13341    0.62274    0.85807    1.000
    Si940    Si       0.15563    0.55426    0.80961    1.000
    Si941    Si       0.14261    0.60514    0.75706    1.000
    N942     N        0.11749    0.56278    0.82835    1.000
    N943     N        0.12106    0.62630    0.78806    1.000
    Si944    Si       0.15240    0.62454    0.81707    1.000
    N945     N        0.15795    0.52296    0.77893    1.000
    Si946    Si       0.11325    0.58093    0.86714    1.000
    N947     N        0.13083    0.68544    0.83770    1.000
    Si948    Si       0.15635    0.71517    0.76407    1.000
    N949     N        0.11445    0.69932    0.77176    1.000
    N950     N        0.11396    0.75212    0.81449    1.000
    N951     N        0.14959    0.56881    0.88984    1.000
    Si952    Si       0.13133    0.62441    0.97119    1.000
    Si953    Si       0.10966    0.51665    0.96367    1.000
    N954     N        0.16497    0.59992    0.98583    1.000
    N955     N        0.14360    0.66517    0.97720    1.000
    N956     N        0.13989    0.71012    0.91521    1.000
    Si957    Si       0.15972    0.69685    0.95233    1.000
    N958     N        0.15104    0.72787    0.98251    1.000
    N959     N        0.14870    0.79565    0.06414    1.000
    N960     N        0.13257    0.84992    0.03656    1.000
    Si961    Si       0.12875    0.83821    0.07876    1.000
    Si962    Si       0.13333    0.80687    0.02389    1.000
    Si963    Si       0.11627    0.77755    0.08787    1.000
    N964     N        0.15010    0.85134    0.11281    1.000
    Si965    Si       0.14982    0.88836    0.02723    1.000
    N966     N        0.12278    0.97395    0.07541    1.000
    N967     N        0.14139    0.91245    0.06246    1.000
    N968     N        0.16533    0.96064    0.01660    1.000
    Si969    Si       0.16376    0.97523    0.05937    1.000
    N970     N        0.15085    0.77682    0.21976    1.000
    N971     N        0.11737    0.76915    0.13135    1.000
    Si972    Si       0.13360    0.88129    0.14047    1.000
    N973     N        0.16961    0.85552    0.24050    1.000
    N974     N        0.13697    0.88074    0.18367    1.000
    N975     N        0.13391    0.95317    0.19421    1.000
    Si976    Si       0.11901    0.91429    0.20541    1.000
    Si977    Si       0.15639    0.95759    0.15705    1.000
    N978     N        0.13559    0.99007    0.14031    1.000
    N979     N        0.15566    0.92012    0.13172    1.000
    N980     N        0.14664    0.80367    0.34502    1.000
    Si981    Si       0.14107    0.82325    0.30662    1.000
    N982     N        0.11862    0.79733    0.27919    1.000
    Si983    Si       0.12958    0.86799    0.25485    1.000
    N984     N        0.12120    0.86038    0.29757    1.000
    Si985    Si       0.13809    0.76314    0.25834    1.000
    N986     N        0.13050    0.93695    0.31449    1.000
    Si987    Si       0.11307    0.97035    0.33830    1.000
    N988     N        0.13028    0.91143    0.24733    1.000
    N989     N        0.15890    0.79321    0.41706    1.000
    Si990    Si       0.14835    0.82118    0.38546    1.000
    N991     N        0.10926    0.87289    0.48309    1.000
    N992     N        0.11238    0.89512    0.39116    1.000
    Si993    Si       0.14103    0.99612    0.39021    1.000
    Si994    Si       0.15474    0.89763    0.39784    1.000
    Si995    Si       0.13940    0.93948    0.45852    1.000
    N996     N        0.16074    0.90757    0.43934    1.000
    N997     N        0.15520    0.97893    0.45193    1.000
    N998     N        0.11485    0.96108    0.38185    1.000
    N999     N        0.15192    0.86957    0.53090    1.000
    Si1000   Si       0.15694    0.84384    0.56573    1.000
    N1001    N        0.11452    0.83668    0.57554    1.000
    N1002    N        0.11849    0.77483    0.61309    1.000
    N1003    N        0.13029    0.80344    0.50482    1.000
    Si1004   Si       0.16558    0.78693    0.52165    1.000
    Si1005   Si       0.14097    0.84557    0.49623    1.000
    Si1006   Si       0.12027    0.89924    0.51545    1.000
    N1007    N        0.12158    0.98741    0.54458    1.000
    N1008    N        0.12589    0.96729    0.61056    1.000
    N1009    N        0.13964    0.93512    0.50228    1.000
    Si1010   Si       0.11608    0.00315    0.58592    1.000
    Si1011   Si       0.15862    0.96131    0.53400    1.000
    Si1012   Si       0.10811    0.76527    0.65694    1.000
    Si1013   Si       0.15683    0.86922    0.63797    1.000
    N1014    N        0.14377    0.78308    0.67474    1.000
    N1015    N        0.12194    0.83877    0.71861    1.000
    N1016    N        0.11478    0.85451    0.64081    1.000
    Si1017   Si       0.16601    0.76256    0.70587    1.000
    N1018    N        0.12332    0.98319    0.72171    1.000
    N1019    N        0.14133    0.90552    0.70701    1.000
    Si1020   Si       0.16468    0.97454    0.72622    1.000
    Si1021   Si       0.15358    0.76143    0.82814    1.000
    N1022    N        0.15400    0.89017    0.85075    1.000
    N1023    N        0.14307    0.90048    0.78995    1.000
    Si1024   Si       0.11896    0.89834    0.82732    1.000
    Si1025   Si       0.15690    0.90327    0.74858    1.000
    Si1026   Si       0.10923    0.97302    0.85968    1.000
    N1027    N        0.11059    0.00762    0.83608    1.000
    Si1028   Si       0.15443    0.01095    0.83766    1.000
    N1029    N        0.14961    0.76388    0.87222    1.000
    N1030    N        0.12005    0.78075    0.94015    1.000
    Si1031   Si       0.13119    0.79187    0.89961    1.000
    Si1032   Si       0.15556    0.76926    0.96417    1.000
    Si1033   Si       0.12552    0.85828    0.92131    1.000
    N1034    N        0.15465    0.82771    0.91049    1.000
    N1035    N        0.16387    0.80066    0.99247    1.000
    N1036    N        0.15375    0.97735    0.86977    1.000
    Si1037   Si       0.13430    0.97527    0.99048    1.000
    N1038    N        0.13108    0.96080    0.94760    1.000
    N1039    N        0.14826    0.89474    0.92150    1.000
    Si1040   Si       0.15038    0.92041    0.95533    1.000
    N1041    N        0.13204    0.90181    0.99065    1.000
    Si1042   Si       0.14844    0.98511    0.91529    1.000
    Si1043   Si       0.19704    0.09512    0.05629    1.000
    N1044    N        0.17747    0.07294    0.02497    1.000
    N1045    N        0.17654    0.01762    0.05589    1.000
    N1046    N        0.19734    0.12915    0.03149    1.000
    Si1047   Si       0.21771    0.02520    0.06720    1.000
    Si1048   Si       0.17725    0.04012    0.99805    1.000
    Si1049   Si       0.18046    0.10735    0.99484    1.000
    Si1050   Si       0.21429    0.18876    0.09620    1.000
    N1051    N        0.17489    0.19387    0.07901    1.000
    N1052    N        0.16779    0.22462    0.00971    1.000
    Si1053   Si       0.17375    0.08939    0.17190    1.000
    N1054    N        0.20698    0.11455    0.17287    1.000
    N1055    N        0.18165    0.04934    0.15670    1.000
    N1056    N        0.21169    0.00691    0.22462    1.000
    Si1057   Si       0.22023    0.03586    0.14352    1.000
    N1058    N        0.19640    0.17663    0.13515    1.000
    N1059    N        0.18743    0.23366    0.18375    1.000
    Si1060   Si       0.20286    0.15792    0.17528    1.000
    N1061    N        0.17141    0.17063    0.20072    1.000
    Si1062   Si       0.17890    0.16593    0.24445    1.000
    Si1063   Si       0.21797    0.21502    0.21017    1.000
    N1064    N        0.19339    0.06912    0.33129    1.000
    Si1065   Si       0.18298    0.05724    0.29071    1.000
    N1066    N        0.17544    0.01599    0.28212    1.000
    N1067    N        0.20040    0.13074    0.25648    1.000
    N1068    N        0.21933    0.06536    0.26719    1.000
    N1069    N        0.17046    0.13233    0.33895    1.000
    Si1070   Si       0.19362    0.23113    0.27842    1.000
    Si1071   Si       0.19351    0.20952    0.34906    1.000
    Si1072   Si       0.21195    0.14044    0.34492    1.000
    N1073    N        0.17336    0.22034    0.31349    1.000
    N1074    N        0.19896    0.24792    0.37025    1.000
    N1075    N        0.19964    0.20319    0.24838    1.000
    Si1076   Si       0.21377    0.09058    0.40694    1.000
    N1077    N        0.17070    0.08286    0.39707    1.000
    N1078    N        0.22086    0.12879    0.38603    1.000
    N1079    N        0.22418    0.01679    0.42951    1.000
    N1080    N        0.20779    0.03571    0.49540    1.000
    Si1081   Si       0.16162    0.15092    0.46210    1.000
    Si1082   Si       0.20099    0.25621    0.47624    1.000
    Si1083   Si       0.17087    0.20554    0.41065    1.000
    N1084    N        0.21567    0.19824    0.40989    1.000
    N1085    N        0.17874    0.24314    0.43544    1.000
    N1086    N        0.20361    0.14559    0.45333    1.000
    N1087    N        0.20674    0.07239    0.57335    1.000
    Si1088   Si       0.20220    0.11015    0.55193    1.000
    N1089    N        0.19680    0.10221    0.50947    1.000
    Si1090   Si       0.17498    0.04330    0.56661    1.000
    N1091    N        0.16955    0.13423    0.56549    1.000
    Si1092   Si       0.17640    0.06396    0.49808    1.000
    N1093    N        0.17710    0.19907    0.55681    1.000
    N1094    N        0.21109    0.16651    0.60741    1.000
    Si1095   Si       0.21309    0.22047    0.54077    1.000
    N1096    N        0.19268    0.22167    0.50082    1.000
    Si1097   Si       0.17321    0.17032    0.58796    1.000
    N1098    N        0.18062    0.07750    0.64359    1.000
    N1099    N        0.20580    0.08998    0.71778    1.000
    Si1100   Si       0.20407    0.09697    0.67194    1.000
    N1101    N        0.16739    0.13714    0.74576    1.000
    N1102    N        0.19360    0.24074    0.74597    1.000
    Si1103   Si       0.21179    0.17031    0.65063    1.000
    N1104    N        0.18982    0.20850    0.66024    1.000
    N1105    N        0.19346    0.13991    0.67201    1.000
    N1106    N        0.17936    0.11275    0.83584    1.000
    N1107    N        0.18476    0.06705    0.77972    1.000
    Si1108   Si       0.19692    0.02431    0.77552    1.000
    Si1109   Si       0.19362    0.10435    0.75679    1.000
    Si1110   Si       0.21687    0.11369    0.85847    1.000
    N1111    N        0.16491    0.05008    0.85018    1.000
    N1112    N        0.18193    0.17316    0.80271    1.000
    Si1113   Si       0.17614    0.21601    0.83453    1.000
    N1114    N        0.22097    0.21873    0.84195    1.000
    N1115    N        0.16658    0.18035    0.86318    1.000
    Si1116   Si       0.22427    0.15929    0.80053    1.000
    Si1117   Si       0.18858    0.09359    0.92776    1.000
    N1118    N        0.19723    0.05521    0.90765    1.000
    Si1119   Si       0.21040    0.02407    0.93725    1.000
    N1120    N        0.20851    0.12168    0.90139    1.000
    N1121    N        0.21455    0.11342    0.96259    1.000
    N1122    N        0.21347    0.02075    0.98303    1.000
    N1123    N        0.16835    0.07171    0.96451    1.000
    N1124    N        0.19256    0.17492    0.96758    1.000
    N1125    N        0.16470    0.22712    0.93585    1.000
    Si1126   Si       0.21670    0.15407    0.93530    1.000
    N1127    N        0.21719    0.19040    0.90863    1.000
    Si1128   Si       0.20379    0.20730    0.99623    1.000
    Si1129   Si       0.20819    0.22536    0.93224    1.000
    N1130    N        0.16215    0.23976    0.87202    1.000
    Si1131   Si       0.18305    0.33013    0.03670    1.000
    N1132    N        0.20428    0.36905    0.02189    1.000
    N1133    N        0.21447    0.30825    0.01583    1.000
    N1134    N        0.17677    0.31833    0.07841    1.000
    N1135    N        0.19753    0.26623    0.11532    1.000
    N1136    N        0.19607    0.43725    0.05008    1.000
    Si1137   Si       0.19496    0.42355    0.09106    1.000
    Si1138   Si       0.20031    0.48273    0.04790    1.000
    N1139    N        0.21446    0.49033    0.00700    1.000
    Si1140   Si       0.21841    0.40869    0.02357    1.000
    N1141    N        0.22040    0.38887    0.09420    1.000
    Si1142   Si       0.21151    0.36883    0.13172    1.000
    Si1143   Si       0.17967    0.26828    0.15590    1.000
    Si1144   Si       0.18351    0.32148    0.20686    1.000
    N1145    N        0.20034    0.30283    0.17119    1.000
    N1146    N        0.21080    0.31129    0.24030    1.000
    N1147    N        0.17179    0.36288    0.19796    1.000
    N1148    N        0.16677    0.36228    0.12984    1.000
    Si1149   Si       0.21692    0.44918    0.19979    1.000
    N1150    N        0.21183    0.49208    0.21567    1.000
    N1151    N        0.21669    0.44970    0.12062    1.000
    N1152    N        0.17709    0.43598    0.18261    1.000
    N1153    N        0.17298    0.49636    0.14170    1.000
    Si1154   Si       0.21271    0.49189    0.12435    1.000
    N1155    N        0.18539    0.32638    0.29943    1.000
    Si1156   Si       0.19520    0.29322    0.27459    1.000
    Si1157   Si       0.21271    0.35740    0.29222    1.000
    Si1158   Si       0.18190    0.28702    0.36521    1.000
    N1159    N        0.20550    0.32209    0.37134    1.000
    Si1160   Si       0.18556    0.35928    0.36730    1.000
    N1161    N        0.19288    0.39173    0.27806    1.000
    N1162    N        0.18513    0.40022    0.35127    1.000
    Si1163   Si       0.19603    0.49484    0.25523    1.000
    N1164    N        0.17090    0.46943    0.36194    1.000
    N1165    N        0.21354    0.45846    0.27373    1.000
    Si1166   Si       0.21184    0.47787    0.37265    1.000
    N1167    N        0.20206    0.34885    0.49044    1.000
    N1168    N        0.18504    0.37134    0.41148    1.000
    Si1169   Si       0.16826    0.32202    0.49114    1.000
    Si1170   Si       0.19279    0.49513    0.43817    1.000
    Si1171   Si       0.19684    0.39082    0.47992    1.000
    N1172    N        0.20433    0.32510    0.57731    1.000
    Si1173   Si       0.18966    0.28542    0.57811    1.000
    Si1174   Si       0.18687    0.35996    0.59286    1.000
    N1175    N        0.22047    0.26122    0.55715    1.000
    N1176    N        0.18582    0.27399    0.61967    1.000
    N1177    N        0.18738    0.40048    0.57814    1.000
    Si1178   Si       0.17984    0.47600    0.55096    1.000
    N1179    N        0.17307    0.46403    0.59320    1.000
    Si1180   Si       0.20479    0.43072    0.60420    1.000
    Si1181   Si       0.19148    0.50164    0.61221    1.000
    N1182    N        0.19485    0.42571    0.50437    1.000
    N1183    N        0.22240    0.46501    0.54824    1.000
    Si1184   Si       0.19315    0.27430    0.71670    1.000
    N1185    N        0.18323    0.35496    0.63480    1.000
    N1186    N        0.21051    0.35812    0.70001    1.000
    Si1187   Si       0.19509    0.35264    0.73972    1.000
    Si1188   Si       0.20919    0.37742    0.65987    1.000
    N1189    N        0.21607    0.27103    0.68137    1.000
    N1190    N        0.19519    0.30851    0.74369    1.000
    Si1191   Si       0.17160    0.44739    0.66473    1.000
    N1192    N        0.19691    0.41804    0.64578    1.000
    N1193    N        0.17189    0.50145    0.71514    1.000
    N1194    N        0.19290    0.48510    0.65276    1.000
    Si1195   Si       0.16678    0.46262    0.73443    1.000
    N1196    N        0.20973    0.35854    0.85495    1.000
    Si1197   Si       0.17476    0.29374    0.78013    1.000
    Si1198   Si       0.17062    0.34104    0.84158    1.000
    N1199    N        0.18131    0.30359    0.86560    1.000
    N1200    N        0.22204    0.37459    0.76567    1.000
    N1201    N        0.18593    0.25959    0.80584    1.000
    N1202    N        0.19960    0.45066    0.75819    1.000
    Si1203   Si       0.21284    0.41550    0.77919    1.000
    N1204    N        0.20329    0.42241    0.82215    1.000
    Si1205   Si       0.18755    0.49657    0.84595    1.000
    Si1206   Si       0.21373    0.40182    0.86597    1.000
    N1207    N        0.18332    0.34399    0.96092    1.000
    Si1208   Si       0.17527    0.27189    0.89633    1.000
    Si1209   Si       0.21600    0.34370    0.98782    1.000
    N1210    N        0.21476    0.26461    0.91214    1.000
    Si1211   Si       0.19526    0.46152    0.98227    1.000
    N1212    N        0.17204    0.41652    0.87421    1.000
    N1213    N        0.19899    0.45678    0.93795    1.000
    N1214    N        0.17684    0.49915    0.88722    1.000
    N1215    N        0.22050    0.42572    0.98455    1.000
    N1216    N        0.19030    0.56416    0.04856    1.000
    Si1217   Si       0.20962    0.60532    0.12117    1.000
    N1218    N        0.20979    0.63160    0.08484    1.000
    N1219    N        0.17387    0.70005    0.04036    1.000
    N1220    N        0.17417    0.74419    0.10029    1.000
    Si1221   Si       0.21647    0.69497    0.03427    1.000
    Si1222   Si       0.16782    0.63975    0.08558    1.000
    N1223    N        0.18031    0.61436    0.20949    1.000
    Si1224   Si       0.17728    0.57273    0.19179    1.000
    N1225    N        0.21801    0.55974    0.18850    1.000
    N1226    N        0.22657    0.62134    0.15806    1.000
    Si1227   Si       0.20599    0.64271    0.18685    1.000
    N1228    N        0.17598    0.67008    0.17151    1.000
    N1229    N        0.19093    0.72137    0.21712    1.000
    Si1230   Si       0.20406    0.54471    0.32528    1.000
    Si1231   Si       0.18004    0.60019    0.35153    1.000
    N1232    N        0.20416    0.51757    0.29067    1.000
    Si1233   Si       0.20580    0.61857    0.29841    1.000
    N1234    N        0.16748    0.55631    0.34591    1.000
    N1235    N        0.16889    0.60575    0.27932    1.000
    N1236    N        0.22293    0.58354    0.32145    1.000
    N1237    N        0.19102    0.64182    0.33364    1.000
    Si1238   Si       0.19091    0.71171    0.28685    1.000
    N1239    N        0.20371    0.70901    0.32743    1.000
    Si1240   Si       0.21534    0.67308    0.34884    1.000
    N1241    N        0.17387    0.75237    0.27824    1.000
    N1242    N        0.19977    0.60192    0.39018    1.000
    N1243    N        0.20731    0.52137    0.47008    1.000
    Si1244   Si       0.19831    0.56485    0.46699    1.000
    N1245    N        0.16541    0.51636    0.41227    1.000
    N1246    N        0.17064    0.72364    0.42528    1.000
    N1247    N        0.21656    0.68418    0.39129    1.000
    Si1248   Si       0.19450    0.73122    0.46135    1.000
    N1249    N        0.19103    0.70202    0.49510    1.000
    Si1250   Si       0.17538    0.68629    0.39989    1.000
    Si1251   Si       0.17841    0.55613    0.57503    1.000
    N1252    N        0.18610    0.51749    0.56022    1.000
    N1253    N        0.19809    0.57451    0.50892    1.000
    Si1254   Si       0.17369    0.60451    0.52844    1.000
    N1255    N        0.21996    0.57399    0.57269    1.000
    N1256    N        0.17093    0.54216    0.61595    1.000
    N1257    N        0.19745    0.63734    0.54296    1.000
    Si1258   Si       0.17719    0.66814    0.56358    1.000
    N1259    N        0.20756    0.70107    0.56360    1.000
    Si1260   Si       0.21209    0.72634    0.59692    1.000
    N1261    N        0.17299    0.72578    0.61391    1.000
    N1262    N        0.18790    0.55617    0.67686    1.000
    N1263    N        0.20770    0.61177    0.63776    1.000
    Si1264   Si       0.21271    0.59282    0.67672    1.000
    Si1265   Si       0.20110    0.51448    0.68425    1.000
    N1266    N        0.20352    0.62378    0.70457    1.000
    Si1267   Si       0.16971    0.53798    0.73965    1.000
    N1268    N        0.20949    0.55872    0.74362    1.000
    Si1269   Si       0.17150    0.63558    0.63929    1.000
    Si1270   Si       0.21287    0.71321    0.71898    1.000
    N1271    N        0.19002    0.73286    0.68588    1.000
    Si1272   Si       0.17359    0.65591    0.70928    1.000
    N1273    N        0.18211    0.68924    0.73909    1.000
    N1274    N        0.16978    0.66892    0.66712    1.000
    Si1275   Si       0.16418    0.71058    0.65543    1.000
    Si1276   Si       0.21126    0.58714    0.77582    1.000
    N1277    N        0.18551    0.54013    0.83681    1.000
    N1278    N        0.20591    0.60520    0.86257    1.000
    Si1279   Si       0.21823    0.56645    0.84505    1.000
    N1280    N        0.16889    0.59037    0.78917    1.000
    N1281    N        0.22726    0.62577    0.76613    1.000
    N1282    N        0.18216    0.65428    0.81616    1.000
    Si1283   Si       0.21584    0.73417    0.78879    1.000
    N1284    N        0.17405    0.72645    0.80392    1.000
    Si1285   Si       0.22026    0.65347    0.79757    1.000
    Si1286   Si       0.17274    0.69249    0.83258    1.000
    N1287    N        0.21517    0.74867    0.74717    1.000
    N1288    N        0.19877    0.55538    0.93176    1.000
    Si1289   Si       0.18953    0.59260    0.94990    1.000
    N1290    N        0.17555    0.62505    0.92330    1.000
    Si1291   Si       0.16914    0.60852    0.88407    1.000
    Si1292   Si       0.16678    0.53541    0.90950    1.000
    N1293    N        0.18927    0.70704    0.86791    1.000
    Si1294   Si       0.21365    0.64787    0.93053    1.000
    N1295    N        0.20016    0.68606    0.94465    1.000
    Si1296   Si       0.16990    0.73444    0.89800    1.000
    Si1297   Si       0.18823    0.77945    0.07640    1.000
    N1298    N        0.20105    0.80690    0.10785    1.000
    Si1299   Si       0.22293    0.87538    0.04748    1.000
    N1300    N        0.21957    0.77587    0.04606    1.000
    N1301    N        0.21963    0.83792    0.02944    1.000
    N1302    N        0.20459    0.87882    0.08921    1.000
    N1303    N        0.18945    0.95362    0.08564    1.000
    N1304    N        0.19297    0.89656    0.02274    1.000
    Si1305   Si       0.19887    0.93684    0.00241    1.000
    Si1306   Si       0.17413    0.91346    0.09242    1.000
    Si1307   Si       0.19451    0.84862    0.11824    1.000
    Si1308   Si       0.17852    0.87132    0.19820    1.000
    N1309    N        0.20132    0.85828    0.16344    1.000
    N1310    N        0.21669    0.78695    0.23504    1.000
    N1311    N        0.18875    0.76665    0.16483    1.000
    Si1312   Si       0.18916    0.76412    0.20756    1.000
    Si1313   Si       0.22038    0.78414    0.13928    1.000
    Si1314   Si       0.17288    0.99873    0.24188    1.000
    Si1315   Si       0.21833    0.96756    0.11661    1.000
    N1316    N        0.19968    0.97186    0.15790    1.000
    N1317    N        0.19524    0.90685    0.21470    1.000
    Si1318   Si       0.20256    0.78417    0.27552    1.000
    Si1319   Si       0.19046    0.79746    0.33638    1.000
    Si1320   Si       0.19652    0.85924    0.27692    1.000
    N1321    N        0.21022    0.83082    0.35368    1.000
    N1322    N        0.18158    0.81987    0.29562    1.000
    N1323    N        0.19539    0.76352    0.36677    1.000
    N1324    N        0.22452    0.77561    0.31147    1.000
    N1325    N        0.18038    0.89811    0.28886    1.000
    N1326    N        0.19512    0.95612    0.32802    1.000
    Si1327   Si       0.19995    0.98288    0.29402    1.000
    N1328    N        0.18214    0.96027    0.25969    1.000
    N1329    N        0.17798    0.90630    0.36322    1.000
    Si1330   Si       0.21433    0.96882    0.36470    1.000
    Si1331   Si       0.17293    0.91860    0.25103    1.000
    Si1332   Si       0.16939    0.92352    0.32519    1.000
    Si1333   Si       0.20784    0.86922    0.37951    1.000
    N1334    N        0.17376    0.84254    0.46843    1.000
    N1335    N        0.18505    0.77075    0.48223    1.000
    Si1336   Si       0.18489    0.80339    0.45215    1.000
    Si1337   Si       0.19003    0.87945    0.45866    1.000
    N1338    N        0.22199    0.88052    0.42643    1.000
    N1339    N        0.16906    0.85686    0.39789    1.000
    N1340    N        0.21939    0.94966    0.44421    1.000
    Si1341   Si       0.19665    0.98615    0.43447    1.000
    N1342    N        0.18342    0.98279    0.39211    1.000
    Si1343   Si       0.21721    0.93917    0.48534    1.000
    N1344    N        0.20184    0.89980    0.49774    1.000
    N1345    N        0.17597    0.85685    0.60194    1.000
    N1346    N        0.18557    0.81575    0.54728    1.000
    N1347    N        0.21963    0.87324    0.55277    1.000
    Si1348   Si       0.21830    0.87369    0.59970    1.000
    Si1349   Si       0.18355    0.89703    0.53884    1.000
    N1350    N        0.19496    0.96468    0.51308    1.000
    Si1351   Si       0.21626    0.00137    0.52183    1.000
    N1352    N        0.17083    0.93015    0.56470    1.000
    N1353    N        0.19858    0.00891    0.55990    1.000
    N1354    N        0.19454    0.97149    0.61739    1.000
    Si1355   Si       0.16276    0.94139    0.60782    1.000
    Si1356   Si       0.22361    0.79108    0.73695    1.000
    Si1357   Si       0.18343    0.80520    0.66745    1.000
    N1358    N        0.18790    0.80072    0.71310    1.000
    N1359    N        0.21388    0.78570    0.64615    1.000
    N1360    N        0.17230    0.84654    0.67178    1.000
    Si1361   Si       0.16439    0.83945    0.71590    1.000
    N1362    N        0.17035    0.90984    0.63889    1.000
    N1363    N        0.22201    0.00866    0.67033    1.000
    N1364    N        0.22039    0.91081    0.69360    1.000
    N1365    N        0.17458    0.96072    0.68479    1.000
    Si1366   Si       0.22293    0.93355    0.73125    1.000
    N1367    N        0.19073    0.00716    0.73633    1.000
    Si1368   Si       0.18389    0.98999    0.65622    1.000
    Si1369   Si       0.17623    0.91795    0.68278    1.000
    N1370    N        0.18172    0.93911    0.74518    1.000
    N1371    N        0.17971    0.79420    0.82181    1.000
    N1372    N        0.21570    0.87497    0.80459    1.000
    Si1373   Si       0.21745    0.85822    0.76412    1.000
    Si1374   Si       0.22007    0.80214    0.81334    1.000
    N1375    N        0.22158    0.81566    0.77295    1.000
    N1376    N        0.18081    0.86688    0.74414    1.000
    N1377    N        0.16582    0.00297    0.79755    1.000
    N1378    N        0.19827    0.93663    0.82552    1.000
    Si1379   Si       0.17948    0.89823    0.81604    1.000
    Si1380   Si       0.19614    0.96211    0.86192    1.000
    N1381    N        0.18168    0.75975    0.93027    1.000
    N1382    N        0.20874    0.84751    0.95680    1.000
    N1383    N        0.20798    0.86564    0.88859    1.000
    Si1384   Si       0.19801    0.83466    0.91513    1.000
    Si1385   Si       0.20348    0.82214    0.99211    1.000
    N1386    N        0.19013    0.98873    0.92636    1.000
    N1387    N        0.19117    0.93106    0.96038    1.000
    Si1388   Si       0.21625    0.95234    0.93134    1.000
    Si1389   Si       0.17522    0.89662    0.88719    1.000
    N1390    N        0.20658    0.92971    0.89133    1.000
    Si1391   Si       0.26229    0.06984    0.09711    1.000
    N1392    N        0.26294    0.12687    0.01929    1.000
    N1393    N        0.22735    0.06782    0.07089    1.000
    N1394    N        0.25056    0.01181    0.04334    1.000
    N1395    N        0.22232    0.01056    0.10735    1.000
    N1396    N        0.24195    0.22216    0.09217    1.000
    N1397    N        0.24056    0.15777    0.08300    1.000
    Si1398   Si       0.25362    0.21661    0.04962    1.000
    Si1399   Si       0.27621    0.14383    0.10387    1.000
    Si1400   Si       0.23394    0.14988    0.03997    1.000
    N1401    N        0.25416    0.25088    0.02611    1.000
    N1402    N        0.22644    0.19096    0.02747    1.000
    N1403    N        0.24499    0.07053    0.13619    1.000
    Si1404   Si       0.24860    0.10425    0.16118    1.000
    N1405    N        0.24794    0.01874    0.17311    1.000
    N1406    N        0.26792    0.08493    0.19430    1.000
    N1407    N        0.27662    0.03148    0.23571    1.000
    Si1408   Si       0.27880    0.04166    0.19351    1.000
    N1409    N        0.26689    0.14049    0.14525    1.000
    N1410    N        0.23619    0.18194    0.19083    1.000
    N1411    N        0.25189    0.24224    0.21931    1.000
    Si1412   Si       0.27523    0.16991    0.17596    1.000
    N1413    N        0.23777    0.11721    0.31780    1.000
    Si1414   Si       0.23560    0.07212    0.34075    1.000
    N1415    N        0.27303    0.05292    0.32241    1.000
    N1416    N        0.27190    0.11349    0.26261    1.000
    Si1417   Si       0.23771    0.02904    0.25369    1.000
    Si1418   Si       0.23126    0.10686    0.27520    1.000
    Si1419   Si       0.27890    0.12879    0.30394    1.000
    Si1420   Si       0.26421    0.01002    0.32445    1.000
    Si1421   Si       0.26949    0.19163    0.33421    1.000
    N1422    N        0.28414    0.17204    0.29804    1.000
    N1423    N        0.22609    0.18436    0.34097    1.000
    Si1424   Si       0.26073    0.26050    0.25718    1.000
    Si1425   Si       0.23561    0.04343    0.46233    1.000
    Si1426   Si       0.24658    0.02434    0.39488    1.000
    N1427    N        0.23913    0.06597    0.38307    1.000
    N1428    N        0.27596    0.03171    0.47421    1.000
    N1429    N        0.26405    0.12461    0.49125    1.000
    N1430    N        0.22344    0.08282    0.44848    1.000
    Si1431   Si       0.22502    0.11460    0.47752    1.000
    N1432    N        0.27848    0.19673    0.48352    1.000
    N1433    N        0.23884    0.24308    0.45118    1.000
    N1434    N        0.27089    0.15506    0.42868    1.000
    Si1435   Si       0.22796    0.15738    0.41777    1.000
    Si1436   Si       0.22018    0.24468    0.41232    1.000
    Si1437   Si       0.27018    0.10918    0.52940    1.000
    Si1438   Si       0.24859    0.05917    0.58076    1.000
    N1439    N        0.26627    0.06596    0.53842    1.000
    N1440    N        0.24657    0.02040    0.60195    1.000
    N1441    N        0.24075    0.12865    0.55631    1.000
    N1442    N        0.27912    0.08170    0.60529    1.000
    Si1443   Si       0.24275    0.16560    0.57763    1.000
    N1444    N        0.24740    0.19706    0.54753    1.000
    N1445    N        0.27609    0.17780    0.60210    1.000
    Si1446   Si       0.24740    0.07946    0.70939    1.000
    N1447    N        0.24854    0.04001    0.72866    1.000
    N1448    N        0.24624    0.08812    0.66776    1.000
    N1449    N        0.27821    0.10146    0.72962    1.000
    Si1450   Si       0.27714    0.19437    0.69945    1.000
    N1451    N        0.25014    0.17992    0.66722    1.000
    N1452    N        0.24552    0.22226    0.71476    1.000
    N1453    N        0.24650    0.23777    0.63681    1.000
    Si1454   Si       0.27187    0.20275    0.63672    1.000
    Si1455   Si       0.22511    0.22837    0.67678    1.000
    N1456    N        0.23983    0.07386    0.85587    1.000
    Si1457   Si       0.26570    0.03157    0.76704    1.000
    Si1458   Si       0.26958    0.10916    0.76911    1.000
    Si1459   Si       0.27712    0.06470    0.83354    1.000
    N1460    N        0.27361    0.06779    0.78942    1.000
    N1461    N        0.22838    0.12337    0.77712    1.000
    N1462    N        0.23524    0.01344    0.79140    1.000
    N1463    N        0.24487    0.18666    0.77282    1.000
    N1464    N        0.23359    0.15196    0.84204    1.000
    Si1465   Si       0.23210    0.22330    0.75568    1.000
    N1466    N        0.25130    0.25170    0.78501    1.000
    Si1467   Si       0.23357    0.18639    0.86744    1.000
    Si1468   Si       0.22773    0.25440    0.81926    1.000
    Si1469   Si       0.25479    0.11881    0.97642    1.000
    N1470    N        0.24898    0.02514    0.91603    1.000
    N1471    N        0.28078    0.01345    0.97809    1.000
    Si1472   Si       0.22800    0.03986    0.87931    1.000
    N1473    N        0.28020    0.08638    0.96285    1.000
    N1474    N        0.27549    0.18764    0.87872    1.000
    N1475    N        0.25962    0.15195    0.94816    1.000
    Si1476   Si       0.26485    0.25119    0.98458    1.000
    N1477    N        0.23026    0.22895    0.96930    1.000
    N1478    N        0.28256    0.26204    0.88793    1.000
    Si1479   Si       0.24887    0.29229    0.03636    1.000
    N1480    N        0.25445    0.29185    0.07955    1.000
    Si1481   Si       0.27415    0.32408    0.10138    1.000
    Si1482   Si       0.23967    0.26464    0.10919    1.000
    N1483    N        0.28216    0.31140    0.01755    1.000
    N1484    N        0.28189    0.35732    0.07000    1.000
    Si1485   Si       0.26285    0.39484    0.07854    1.000
    N1486    N        0.25923    0.41663    0.03865    1.000
    Si1487   Si       0.26455    0.50409    0.07207    1.000
    N1488    N        0.27929    0.42150    0.10804    1.000
    N1489    N        0.28384    0.48776    0.99983    1.000
    N1490    N        0.22046    0.50035    0.08256    1.000
    N1491    N        0.24248    0.33641    0.12803    1.000
    N1492    N        0.25221    0.34055    0.19568    1.000
    Si1493   Si       0.25016    0.33014    0.23706    1.000
    N1494    N        0.26228    0.27953    0.14460    1.000
    Si1495   Si       0.24150    0.31198    0.16324    1.000
    Si1496   Si       0.24880    0.38446    0.19879    1.000
    N1497    N        0.23152    0.39414    0.15968    1.000
    N1498    N        0.22574    0.41446    0.22300    1.000
    N1499    N        0.25633    0.44828    0.17896    1.000
    Si1500   Si       0.24950    0.42943    0.14033    1.000
    N1501    N        0.24725    0.36265    0.26503    1.000
    N1502    N        0.23933    0.37375    0.32434    1.000
    Si1503   Si       0.27402    0.38032    0.29790    1.000
    N1504    N        0.27891    0.30004    0.24987    1.000
    N1505    N        0.22582    0.26109    0.28223    1.000
    Si1506   Si       0.22701    0.41713    0.26670    1.000
    N1507    N        0.22970    0.45061    0.34212    1.000
    N1508    N        0.27010    0.49323    0.29801    1.000
    Si1509   Si       0.22898    0.48464    0.31006    1.000
    N1510    N        0.26728    0.42130    0.28355    1.000
    Si1511   Si       0.22918    0.40682    0.35225    1.000
    Si1512   Si       0.24402    0.31389    0.39205    1.000
    Si1513   Si       0.23967    0.32716    0.47701    1.000
    N1514    N        0.23865    0.33249    0.43120    1.000
    N1515    N        0.25253    0.27098    0.39817    1.000
    Si1516   Si       0.22703    0.37311    0.42059    1.000
    N1517    N        0.27963    0.34528    0.48568    1.000
    N1518    N        0.22742    0.28956    0.49625    1.000
    N1519    N        0.24816    0.39163    0.38785    1.000
    Si1520   Si       0.24564    0.50872    0.48500    1.000
    N1521    N        0.23610    0.39461    0.45887    1.000
    Si1522   Si       0.26786    0.38656    0.48953    1.000
    N1523    N        0.22650    0.47801    0.41343    1.000
    Si1524   Si       0.26799    0.48560    0.42115    1.000
    N1525    N        0.25516    0.46651    0.48946    1.000
    Si1526   Si       0.25248    0.27851    0.53196    1.000
    N1527    N        0.26976    0.30996    0.55577    1.000
    Si1528   Si       0.24699    0.32810    0.58830    1.000
    N1529    N        0.25601    0.37030    0.59097    1.000
    N1530    N        0.25675    0.40529    0.52805    1.000
    N1531    N        0.24952    0.43485    0.60969    1.000
    Si1532   Si       0.23358    0.44000    0.51705    1.000
    Si1533   Si       0.26943    0.47335    0.60958    1.000
    N1534    N        0.23438    0.50190    0.60170    1.000
    Si1535   Si       0.24639    0.50016    0.55892    1.000
    Si1536   Si       0.28107    0.39321    0.56452    1.000
    N1537    N        0.25487    0.30841    0.62648    1.000
    Si1538   Si       0.28072    0.33190    0.64927    1.000
    Si1539   Si       0.25511    0.35361    0.69789    1.000
    N1540    N        0.25397    0.36790    0.65544    1.000
    Si1541   Si       0.22773    0.27706    0.63909    1.000
    N1542    N        0.28021    0.31999    0.69029    1.000
    N1543    N        0.27503    0.37830    0.72617    1.000
    N1544    N        0.27652    0.44817    0.71615    1.000
    Si1545   Si       0.27141    0.48365    0.69013    1.000
    Si1546   Si       0.27108    0.40000    0.62710    1.000
    N1547    N        0.24348    0.28875    0.84060    1.000
    Si1548   Si       0.22428    0.31889    0.86513    1.000
    Si1549   Si       0.26286    0.38526    0.76963    1.000
    N1550    N        0.25509    0.42533    0.78394    1.000
    Si1551   Si       0.24572    0.44361    0.82690    1.000
    N1552    N        0.25631    0.41136    0.85680    1.000
    N1553    N        0.22979    0.48260    0.84343    1.000
    N1554    N        0.24627    0.32160    0.90209    1.000
    N1555    N        0.25335    0.34958    0.96485    1.000
    Si1556   Si       0.25006    0.36104    0.92347    1.000
    N1557    N        0.26898    0.28459    0.95824    1.000
    Si1558   Si       0.25454    0.28083    0.91678    1.000
    N1559    N        0.22335    0.39407    0.91432    1.000
    Si1560   Si       0.28000    0.48094    0.95581    1.000
    N1561    N        0.27442    0.44091    0.94109    1.000
    Si1562   Si       0.23112    0.42790    0.94135    1.000
    N1563    N        0.25644    0.59533    0.05035    1.000
    N1564    N        0.25478    0.53333    0.04232    1.000
    Si1565   Si       0.22928    0.56335    0.06417    1.000
    Si1566   Si       0.24751    0.51660    0.99817    1.000
    Si1567   Si       0.27930    0.57457    0.01924    1.000
    N1568    N        0.22688    0.56720    0.10778    1.000
    Si1569   Si       0.24457    0.63564    0.05979    1.000
    N1570    N        0.23924    0.65953    0.02286    1.000
    N1571    N        0.23780    0.70355    0.07019    1.000
    Si1572   Si       0.27855    0.69292    0.07512    1.000
    N1573    N        0.22776    0.72126    0.00029    1.000
    Si1574   Si       0.24827    0.59078    0.17823    1.000
    N1575    N        0.27894    0.57368    0.15345    1.000
    N1576    N        0.27144    0.53149    0.21564    1.000
    Si1577   Si       0.23693    0.52144    0.19291    1.000
    N1578    N        0.26598    0.60242    0.21768    1.000
    Si1579   Si       0.25697    0.54306    0.13073    1.000
    N1580    N        0.23939    0.51114    0.15140    1.000
    N1581    N        0.25769    0.73742    0.22207    1.000
    Si1582   Si       0.27601    0.64575    0.22792    1.000
    Si1583   Si       0.23092    0.70495    0.22758    1.000
    N1584    N        0.23877    0.66584    0.21077    1.000
    Si1585   Si       0.26325    0.59607    0.30509    1.000
    Si1586   Si       0.26420    0.52985    0.36575    1.000
    N1587    N        0.22557    0.51443    0.34990    1.000
    N1588    N        0.24472    0.62806    0.28324    1.000
    N1589    N        0.27839    0.56501    0.27837    1.000
    N1590    N        0.26817    0.74688    0.34291    1.000
    N1591    N        0.25572    0.67138    0.33218    1.000
    Si1592   Si       0.25887    0.67153    0.28690    1.000
    N1593    N        0.22631    0.69319    0.26792    1.000
    Si1594   Si       0.28278    0.64583    0.35580    1.000
    Si1595   Si       0.22386    0.74446    0.34341    1.000
    N1596    N        0.25955    0.55932    0.39524    1.000
    Si1597   Si       0.23850    0.59622    0.40132    1.000
    Si1598   Si       0.26634    0.55776    0.43988    1.000
    N1599    N        0.27175    0.51776    0.45109    1.000
    N1600    N        0.23031    0.58100    0.44403    1.000
    N1601    N        0.26601    0.63047    0.39242    1.000
    Si1602   Si       0.28015    0.67528    0.48544    1.000
    N1603    N        0.23389    0.73713    0.44089    1.000
    N1604    N        0.25629    0.66747    0.44899    1.000
    Si1605   Si       0.24503    0.69912    0.41981    1.000
    N1606    N        0.25065    0.52611    0.52475    1.000
    N1607    N        0.25675    0.60064    0.51732    1.000
    Si1608   Si       0.23490    0.60212    0.60406    1.000
    Si1609   Si       0.23471    0.56660    0.53241    1.000
    N1610    N        0.25544    0.63280    0.58098    1.000
    Si1611   Si       0.24058    0.63638    0.53990    1.000
    N1612    N        0.25528    0.74031    0.52007    1.000
    N1613    N        0.25344    0.67272    0.51965    1.000
    Si1614   Si       0.22506    0.70751    0.52288    1.000
    N1615    N        0.27530    0.59425    0.62452    1.000
    Si1616   Si       0.24573    0.54673    0.72250    1.000
    N1617    N        0.25265    0.57315    0.68742    1.000
    N1618    N        0.23846    0.50875    0.70163    1.000
    N1619    N        0.27916    0.63269    0.71977    1.000
    Si1620   Si       0.23767    0.63968    0.72716    1.000
    N1621    N        0.25870    0.73682    0.68644    1.000
    Si1622   Si       0.27207    0.70969    0.65358    1.000
    N1623    N        0.23642    0.72005    0.63172    1.000
    N1624    N        0.24124    0.68140    0.71562    1.000
    Si1625   Si       0.28028    0.69427    0.73476    1.000
    N1626    N        0.28397    0.66744    0.65189    1.000
    Si1627   Si       0.22458    0.74921    0.66351    1.000
    N1628    N        0.23615    0.57028    0.80680    1.000
    Si1629   Si       0.27601    0.56142    0.79355    1.000
    N1630    N        0.27781    0.60481    0.86252    1.000
    Si1631   Si       0.24211    0.63051    0.86430    1.000
    N1632    N        0.27841    0.54557    0.75139    1.000
    N1633    N        0.28354    0.52595    0.81807    1.000
    Si1634   Si       0.26081    0.51205    0.85286    1.000
    N1635    N        0.23115    0.69526    0.79177    1.000
    N1636    N        0.25374    0.64829    0.82544    1.000
    Si1637   Si       0.26941    0.68636    0.80754    1.000
    Si1638   Si       0.27732    0.75995    0.83310    1.000
    N1639    N        0.23819    0.54299    0.87424    1.000
    Si1640   Si       0.23708    0.54026    0.92027    1.000
    Si1641   Si       0.26392    0.58958    0.95953    1.000
    N1642    N        0.27270    0.56654    0.92514    1.000
    N1643    N        0.25567    0.55643    0.98693    1.000
    N1644    N        0.22890    0.61366    0.95379    1.000
    N1645    N        0.24628    0.50503    0.94705    1.000
    N1646    N        0.24172    0.65447    0.89939    1.000
    Si1647   Si       0.23481    0.70652    0.96033    1.000
    N1648    N        0.26262    0.67299    0.95928    1.000
    Si1649   Si       0.27871    0.66530    0.92083    1.000
    N1650    N        0.24619    0.73657    0.93308    1.000
    Si1651   Si       0.27351    0.65244    0.99617    1.000
    Si1652   Si       0.25239    0.80819    0.04515    1.000
    N1653    N        0.27077    0.80592    0.08682    1.000
    N1654    N        0.27789    0.77495    0.01675    1.000
    Si1655   Si       0.23761    0.76082    0.00882    1.000
    N1656    N        0.28688    0.87511    0.10611    1.000
    N1657    N        0.28146    0.84237    0.03785    1.000
    N1658    N        0.25258    0.90745    0.05489    1.000
    Si1659   Si       0.26623    0.92450    0.01875    1.000
    Si1660   Si       0.27288    0.91262    0.09331    1.000
    N1661    N        0.23774    0.95516    0.00713    1.000
    Si1662   Si       0.24642    0.99747    0.00167    1.000
    Si1663   Si       0.24167    0.84877    0.17584    1.000
    Si1664   Si       0.26014    0.79765    0.23098    1.000
    N1665    N        0.24980    0.81752    0.14854    1.000
    N1666    N        0.25667    0.83997    0.21785    1.000
    Si1667   Si       0.28087    0.79394    0.12899    1.000
    N1668    N        0.25514    0.75609    0.13601    1.000
    Si1669   Si       0.23668    0.91278    0.20990    1.000
    Si1670   Si       0.26971    0.92631    0.15944    1.000
    N1671    N        0.25534    0.95056    0.19414    1.000
    Si1672   Si       0.22726    0.98579    0.18988    1.000
    N1673    N        0.25000    0.93696    0.12194    1.000
    N1674    N        0.26017    0.88951    0.18137    1.000
    Si1675   Si       0.24507    0.84758    0.33346    1.000
    Si1676   Si       0.26871    0.78046    0.31406    1.000
    N1677    N        0.23676    0.86518    0.29283    1.000
    N1678    N        0.27542    0.78894    0.27042    1.000
    N1679    N        0.27748    0.81801    0.33228    1.000
    N1680    N        0.24675    0.87980    0.36190    1.000
    Si1681   Si       0.27053    0.89167    0.28133    1.000
    Si1682   Si       0.27035    0.91497    0.35566    1.000
    N1683    N        0.23796    0.00455    0.28977    1.000
    N1684    N        0.23580    0.00708    0.35750    1.000
    N1685    N        0.27596    0.92191    0.31379    1.000
    N1686    N        0.26296    0.91436    0.24384    1.000
    Si1687   Si       0.25330    0.77632    0.43565    1.000
    Si1688   Si       0.24802    0.84836    0.44031    1.000
    N1689    N        0.25051    0.85460    0.48532    1.000
    N1690    N        0.27446    0.78436    0.47318    1.000
    N1691    N        0.22599    0.81190    0.43418    1.000
    N1692    N        0.28087    0.91255    0.43337    1.000
    Si1693   Si       0.24046    0.92131    0.41729    1.000
    N1694    N        0.24479    0.94098    0.37903    1.000
    N1695    N        0.26034    0.80655    0.53867    1.000
    N1696    N        0.24041    0.83469    0.60191    1.000
    Si1697   Si       0.26571    0.76563    0.55378    1.000
    Si1698   Si       0.24062    0.79181    0.61199    1.000
    N1699    N        0.23289    0.76231    0.58313    1.000
    Si1700   Si       0.27527    0.82051    0.49974    1.000
    Si1701   Si       0.22635    0.82949    0.55823    1.000
    N1702    N        0.28177    0.87848    0.53871    1.000
    Si1703   Si       0.24365    0.88449    0.51682    1.000
    N1704    N        0.25942    0.99722    0.52694    1.000
    Si1705   Si       0.26790    0.95729    0.53759    1.000
    N1706    N        0.24555    0.95300    0.57526    1.000
    Si1707   Si       0.26389    0.93575    0.61052    1.000
    N1708    N        0.25631    0.93133    0.50267    1.000
    Si1709   Si       0.22132    0.98642    0.58868    1.000
    Si1710   Si       0.27334    0.83741    0.63197    1.000
    Si1711   Si       0.27566    0.84028    0.70850    1.000
    N1712    N        0.26248    0.79910    0.71739    1.000
    N1713    N        0.26329    0.85286    0.66926    1.000
    N1714    N        0.25218    0.86525    0.73593    1.000
    N1715    N        0.28083    0.79224    0.62779    1.000
    Si1716   Si       0.22800    0.00478    0.71336    1.000
    N1717    N        0.24720    0.96967    0.72458    1.000
    Si1718   Si       0.25254    0.89509    0.66762    1.000
    N1719    N        0.26847    0.96436    0.64215    1.000
    N1720    N        0.24231    0.89998    0.62540    1.000
    Si1721   Si       0.25747    0.00604    0.64288    1.000
    N1722    N        0.24719    0.82313    0.83916    1.000
    Si1723   Si       0.25431    0.86163    0.82354    1.000
    N1724    N        0.23811    0.76179    0.81332    1.000
    N1725    N        0.28395    0.87250    0.79508    1.000
    Si1726   Si       0.27719    0.89615    0.75881    1.000
    N1727    N        0.25587    0.89997    0.84781    1.000
    N1728    N        0.24039    0.92244    0.76861    1.000
    Si1729   Si       0.25473    0.99783    0.82879    1.000
    N1730    N        0.26738    0.95598    0.82515    1.000
    Si1731   Si       0.23735    0.92688    0.81240    1.000
    N1732    N        0.22177    0.99922    0.85967    1.000
    N1733    N        0.22451    0.78603    0.97712    1.000
    N1734    N        0.27585    0.76609    0.87525    1.000
    Si1735   Si       0.26124    0.80765    0.87658    1.000
    Si1736   Si       0.24807    0.86810    0.95761    1.000
    N1737    N        0.22958    0.80325    0.90782    1.000
    N1738    N        0.28190    0.83980    0.96058    1.000
    Si1739   Si       0.22287    0.77125    0.93483    1.000
    N1740    N        0.26186    0.88995    0.99227    1.000
    Si1741   Si       0.23709    0.89745    0.88926    1.000
    N1742    N        0.25766    0.89502    0.92507    1.000
    N1743    N        0.25681    0.96101    0.93501    1.000
    Si1744   Si       0.27731    0.00002    0.93540    1.000
    Si1745   Si       0.29584    0.10703    0.04214    1.000
    N1746    N        0.29433    0.04056    0.09339    1.000
    N1747    N        0.29560    0.06427    0.03002    1.000
    Si1748   Si       0.29055    0.02663    0.05209    1.000
    Si1749   Si       0.33099    0.01538    0.09876    1.000
    N1750    N        0.28239    0.10640    0.08303    1.000
    N1751    N        0.33045    0.13213    0.03955    1.000
    Si1752   Si       0.32285    0.22822    0.02802    1.000
    N1753    N        0.31449    0.16781    0.10189    1.000
    N1754    N        0.29355    0.20191    0.04744    1.000
    Si1755   Si       0.32201    0.17248    0.05712    1.000
    N1756    N        0.32147    0.25011    0.11903    1.000
    N1757    N        0.32150    0.03645    0.18335    1.000
    N1758    N        0.33052    0.09480    0.21732    1.000
    Si1759   Si       0.28919    0.10889    0.22406    1.000
    Si1760   Si       0.33911    0.12880    0.19317    1.000
    N1761    N        0.29802    0.14494    0.20300    1.000
    Si1762   Si       0.28800    0.23419    0.19530    1.000
    N1763    N        0.29404    0.20589    0.16137    1.000
    N1764    N        0.30618    0.20609    0.22380    1.000
    Si1765   Si       0.31987    0.20622    0.12664    1.000
    N1766    N        0.31081    0.11102    0.32714    1.000
    Si1767   Si       0.31440    0.06752    0.32511    1.000
    N1768    N        0.32521    0.05028    0.36423    1.000
    Si1769   Si       0.32894    0.14080    0.35544    1.000
    Si1770   Si       0.30008    0.19835    0.26643    1.000
    Si1771   Si       0.31413    0.25011    0.31611    1.000
    N1772    N        0.29124    0.23911    0.28151    1.000
    N1773    N        0.28668    0.16251    0.36207    1.000
    N1774    N        0.29018    0.22914    0.34631    1.000
    N1775    N        0.32740    0.09050    0.42520    1.000
    N1776    N        0.33923    0.02328    0.45221    1.000
    N1777    N        0.28672    0.00786    0.40506    1.000
    Si1778   Si       0.27999    0.23172    0.45577    1.000
    Si1779   Si       0.28313    0.15590    0.46908    1.000
    N1780    N        0.29097    0.21666    0.41484    1.000
    Si1781   Si       0.29825    0.17647    0.40237    1.000
    N1782    N        0.33485    0.15281    0.39820    1.000
    Si1783   Si       0.28671    0.24688    0.38476    1.000
    N1784    N        0.32640    0.15650    0.46657    1.000
    N1785    N        0.30790    0.11766    0.54643    1.000
    Si1786   Si       0.31343    0.10064    0.58560    1.000
    N1787    N        0.32516    0.03380    0.52486    1.000
    N1788    N        0.33245    0.01675    0.59720    1.000
    Si1789   Si       0.28367    0.03302    0.51694    1.000
    N1790    N        0.32818    0.13454    0.60707    1.000
    Si1791   Si       0.31734    0.17565    0.59117    1.000
    N1792    N        0.31648    0.19007    0.55121    1.000
    N1793    N        0.28605    0.25118    0.52093    1.000
    Si1794   Si       0.28559    0.20693    0.52557    1.000
    N1795    N        0.34320    0.21914    0.50371    1.000
    N1796    N        0.33954    0.20652    0.61364    1.000
    Si1797   Si       0.32882    0.26189    0.50065    1.000
    N1798    N        0.31754    0.09783    0.66686    1.000
    N1799    N        0.32534    0.04843    0.72230    1.000
    Si1800   Si       0.31843    0.09075    0.71348    1.000
    Si1801   Si       0.31467    0.02192    0.68851    1.000
    N1802    N        0.28661    0.03448    0.65846    1.000
    Si1803   Si       0.28259    0.07789    0.64851    1.000
    Si1804   Si       0.33949    0.16047    0.71487    1.000
    N1805    N        0.30130    0.17515    0.72886    1.000
    N1806    N        0.30180    0.21317    0.66926    1.000
    N1807    N        0.30827    0.08961    0.84711    1.000
    Si1808   Si       0.32128    0.11922    0.81932    1.000
    Si1809   Si       0.33159    0.01700    0.83953    1.000
    N1810    N        0.28673    0.02292    0.84028    1.000
    Si1811   Si       0.33701    0.02075    0.75523    1.000
    N1812    N        0.29287    0.13928    0.79029    1.000
    N1813    N        0.30678    0.21370    0.79033    1.000
    Si1814   Si       0.28930    0.17780    0.77053    1.000
    N1815    N        0.33319    0.14663    0.85190    1.000
    Si1816   Si       0.29536    0.25496    0.78242    1.000
    N1817    N        0.33894    0.21829    0.86405    1.000
    Si1818   Si       0.33859    0.22780    0.81723    1.000
    Si1819   Si       0.29688    0.05247    0.98623    1.000
    Si1820   Si       0.33305    0.10764    0.87910    1.000
    N1821    N        0.32482    0.07187    0.91107    1.000
    Si1822   Si       0.31615    0.10186    0.94087    1.000
    N1823    N        0.31117    0.13126    0.90907    1.000
    N1824    N        0.33843    0.04807    0.97829    1.000
    N1825    N        0.30651    0.20233    0.92687    1.000
    Si1826   Si       0.33076    0.22350    0.95474    1.000
    Si1827   Si       0.30016    0.22288    0.88819    1.000
    Si1828   Si       0.28518    0.16686    0.91619    1.000
    N1829    N        0.30631    0.23553    0.98825    1.000
    Si1830   Si       0.30557    0.34439    0.03643    1.000
    N1831    N        0.33825    0.26225    0.04891    1.000
    N1832    N        0.29195    0.47082    0.06203    1.000
    N1833    N        0.32223    0.43172    0.01230    1.000
    Si1834   Si       0.31171    0.44457    0.09188    1.000
    Si1835   Si       0.28484    0.45068    0.02477    1.000
    N1836    N        0.33155    0.47327    0.11747    1.000
    N1837    N        0.34389    0.42071    0.07545    1.000
    N1838    N        0.31060    0.31868    0.12159    1.000
    N1839    N        0.32951    0.33758    0.21223    1.000
    Si1840   Si       0.31293    0.36879    0.23596    1.000
    N1841    N        0.30839    0.27170    0.18742    1.000
    Si1842   Si       0.31551    0.29588    0.22097    1.000
    Si1843   Si       0.30658    0.28023    0.14477    1.000
    N1844    N        0.32518    0.45452    0.18131    1.000
    Si1845   Si       0.29145    0.43809    0.20206    1.000
    N1846    N        0.28913    0.39521    0.20881    1.000
    Si1847   Si       0.33866    0.46964    0.21885    1.000
    N1848    N        0.30375    0.45858    0.24082    1.000
    N1849    N        0.30745    0.35396    0.27962    1.000
    N1850    N        0.31145    0.29279    0.32154    1.000
    Si1851   Si       0.30698    0.31090    0.28165    1.000
    Si1852   Si       0.31384    0.30726    0.36175    1.000
    N1853    N        0.28010    0.33113    0.37443    1.000
    N1854    N        0.30020    0.38639    0.33538    1.000
    N1855    N        0.32394    0.45926    0.31271    1.000
    Si1856   Si       0.33103    0.41741    0.33501    1.000
    Si1857   Si       0.29178    0.45749    0.28287    1.000
    Si1858   Si       0.31541    0.47683    0.35571    1.000
    N1859    N        0.32524    0.43823    0.37207    1.000
    Si1860   Si       0.28661    0.37441    0.37589    1.000
    Si1861   Si       0.32345    0.33496    0.48245    1.000
    N1862    N        0.31941    0.27373    0.38908    1.000
    N1863    N        0.33422    0.32256    0.44276    1.000
    Si1864   Si       0.33779    0.28109    0.42858    1.000
    N1865    N        0.31297    0.26257    0.45936    1.000
    N1866    N        0.30401    0.41064    0.48493    1.000
    N1867    N        0.29537    0.45361    0.43384    1.000
    N1868    N        0.31633    0.38376    0.40748    1.000
    Si1869   Si       0.29458    0.45115    0.47733    1.000
    Si1870   Si       0.32230    0.42722    0.41360    1.000
    N1871    N        0.28598    0.49419    0.38249    1.000
    N1872    N        0.30920    0.37045    0.54124    1.000
    N1873    N        0.32747    0.30514    0.51606    1.000
    Si1874   Si       0.30715    0.32723    0.54788    1.000
    N1875    N        0.33693    0.31617    0.57694    1.000
    Si1876   Si       0.32002    0.47660    0.54190    1.000
    N1877    N        0.30947    0.40253    0.60175    1.000
    Si1878   Si       0.33113    0.39908    0.51527    1.000
    N1879    N        0.33091    0.43313    0.54525    1.000
    N1880    N        0.28751    0.48443    0.57050    1.000
    N1881    N        0.32047    0.47871    0.49846    1.000
    N1882    N        0.32906    0.33422    0.73921    1.000
    N1883    N        0.32192    0.34594    0.63845    1.000
    Si1884   Si       0.30925    0.30256    0.71632    1.000
    N1885    N        0.30187    0.27264    0.74568    1.000
    N1886    N        0.28522    0.48487    0.64921    1.000
    Si1887   Si       0.29751    0.41170    0.70506    1.000
    Si1888   Si       0.32851    0.38955    0.63931    1.000
    N1889    N        0.29790    0.41497    0.66023    1.000
    N1890    N        0.33682    0.38936    0.70277    1.000
    Si1891   Si       0.31582    0.35439    0.82533    1.000
    N1892    N        0.30186    0.32902    0.86000    1.000
    N1893    N        0.31141    0.26875    0.82408    1.000
    Si1894   Si       0.28585    0.28833    0.85277    1.000
    N1895    N        0.29572    0.36705    0.78986    1.000
    Si1896   Si       0.32702    0.37592    0.75138    1.000
    Si1897   Si       0.28248    0.44644    0.75934    1.000
    N1898    N        0.32670    0.39108    0.84575    1.000
    N1899    N        0.30819    0.48146    0.76854    1.000
    Si1900   Si       0.30976    0.49072    0.81138    1.000
    Si1901   Si       0.29730    0.42108    0.85570    1.000
    N1902    N        0.31852    0.42099    0.75477    1.000
    N1903    N        0.28967    0.45854    0.83222    1.000
    Si1904   Si       0.28765    0.32510    0.97450    1.000
    Si1905   Si       0.31986    0.34599    0.89898    1.000
    N1906    N        0.31726    0.32188    0.93569    1.000
    N1907    N        0.29157    0.37701    0.91249    1.000
    N1908    N        0.31345    0.35999    0.99731    1.000
    N1909    N        0.28976    0.50629    0.88432    1.000
    Si1910   Si       0.32492    0.48058    0.87438    1.000
    Si1911   Si       0.33653    0.39592    0.98725    1.000
    Si1912   Si       0.30488    0.41604    0.92492    1.000
    N1913    N        0.31615    0.44016    0.89024    1.000
    Si1914   Si       0.31443    0.62008    0.07778    1.000
    N1915    N        0.31682    0.55301    0.01968    1.000
    N1916    N        0.32102    0.57980    0.09350    1.000
    Si1917   Si       0.32664    0.51558    0.10744    1.000
    N1918    N        0.33549    0.61210    0.03953    1.000
    Si1919   Si       0.33252    0.62648    0.99932    1.000
    N1920    N        0.28464    0.52295    0.10520    1.000
    Si1921   Si       0.34258    0.56645    0.05700    1.000
    Si1922   Si       0.31946    0.51673    0.99591    1.000
    Si1923   Si       0.33140    0.73756    0.08358    1.000
    N1924    N        0.31344    0.71254    0.05585    1.000
    Si1925   Si       0.33363    0.70254    0.01820    1.000
    N1926    N        0.31455    0.66762    0.00420    1.000
    N1927    N        0.29687    0.69637    0.11650    1.000
    Si1928   Si       0.33657    0.67887    0.11142    1.000
    N1929    N        0.28329    0.64957    0.07107    1.000
    Si1930   Si       0.28344    0.56693    0.23574    1.000
    Si1931   Si       0.31856    0.57449    0.13727    1.000
    N1932    N        0.32662    0.57438    0.22822    1.000
    Si1933   Si       0.33423    0.60910    0.20255    1.000
    N1934    N        0.33762    0.53524    0.14449    1.000
    N1935    N        0.34015    0.60296    0.15916    1.000
    N1936    N        0.30931    0.71894    0.17692    1.000
    N1937    N        0.31170    0.64739    0.20175    1.000
    Si1938   Si       0.29033    0.73136    0.13903    1.000
    Si1939   Si       0.29939    0.74620    0.20963    1.000
    Si1940   Si       0.33319    0.68323    0.18822    1.000
    N1941    N        0.29545    0.61432    0.32787    1.000
    Si1942   Si       0.29482    0.52992    0.29808    1.000
    N1943    N        0.29714    0.53993    0.33953    1.000
    N1944    N        0.33306    0.51816    0.28078    1.000
    Si1945   Si       0.33405    0.54302    0.36278    1.000
    Si1946   Si       0.33545    0.60860    0.34312    1.000
    Si1947   Si       0.32760    0.70204    0.26184    1.000
    N1948    N        0.33371    0.74294    0.36400    1.000
    N1949    N        0.32103    0.66776    0.36450    1.000
    N1950    N        0.29177    0.67578    0.25896    1.000
    N1951    N        0.34503    0.70944    0.30247    1.000
    N1952    N        0.32371    0.74460    0.24575    1.000
    Si1953   Si       0.33136    0.58742    0.42306    1.000
    N1954    N        0.29240    0.59464    0.44740    1.000
    Si1955   Si       0.29206    0.60208    0.49379    1.000
    N1956    N        0.33852    0.54688    0.40777    1.000
    N1957    N        0.33439    0.61056    0.38747    1.000
    Si1958   Si       0.28339    0.63580    0.43167    1.000
    N1959    N        0.32143    0.65731    0.43338    1.000
    N1960    N        0.30129    0.71184    0.47299    1.000
    N1961    N        0.28454    0.71318    0.40555    1.000
    Si1962   Si       0.31728    0.70090    0.43145    1.000
    Si1963   Si       0.29243    0.74500    0.37895    1.000
    Si1964   Si       0.29051    0.74801    0.49433    1.000
    N1965    N        0.30843    0.64203    0.49364    1.000
    N1966    N        0.32519    0.58329    0.51314    1.000
    N1967    N        0.32460    0.58898    0.58142    1.000
    Si1968   Si       0.29545    0.62127    0.59595    1.000
    Si1969   Si       0.33668    0.56246    0.61359    1.000
    N1970    N        0.31508    0.66006    0.59325    1.000
    Si1971   Si       0.34096    0.74755    0.54736    1.000
    N1972    N        0.30538    0.75883    0.57133    1.000
    N1973    N        0.31492    0.54600    0.64576    1.000
    N1974    N        0.32094    0.60370    0.67989    1.000
    Si1975   Si       0.28860    0.57582    0.66191    1.000
    N1976    N        0.30674    0.51042    0.70416    1.000
    Si1977   Si       0.31887    0.50685    0.66211    1.000
    Si1978   Si       0.31537    0.52158    0.74641    1.000
    N1979    N        0.31362    0.68643    0.70669    1.000
    N1980    N        0.30858    0.72399    0.63452    1.000
    Si1981   Si       0.32477    0.68155    0.62988    1.000
    Si1982   Si       0.30279    0.64599    0.68379    1.000
    N1983    N        0.29531    0.60214    0.78940    1.000
    Si1984   Si       0.29388    0.62495    0.82666    1.000
    Si1985   Si       0.30369    0.63297    0.75681    1.000
    Si1986   Si       0.33833    0.58990    0.78896    1.000
    N1987    N        0.33944    0.54851    0.77818    1.000
    Si1988   Si       0.33223    0.69966    0.82852    1.000
    N1989    N        0.32349    0.65652    0.83197    1.000
    Si1990   Si       0.31095    0.73952    0.78456    1.000
    N1991    N        0.29210    0.71808    0.82222    1.000
    N1992    N        0.28998    0.67151    0.77206    1.000
    N1993    N        0.28998    0.73401    0.74672    1.000
    Si1994   Si       0.31201    0.53029    0.91260    1.000
    N1995    N        0.32911    0.56694    0.89218    1.000
    Si1996   Si       0.29600    0.59447    0.89893    1.000
    N1997    N        0.28848    0.61155    0.99219    1.000
    N1998    N        0.31220    0.50986    0.95122    1.000
    N1999    N        0.30315    0.62969    0.92242    1.000
    N2000    N        0.34033    0.74887    0.91595    1.000
    N2001    N        0.29617    0.70058    0.90428    1.000
    Si2002   Si       0.33759    0.70847    0.90365    1.000
    N2003    N        0.33616    0.73767    0.98905    1.000
    Si2004   Si       0.28590    0.74685    0.91466    1.000
    Si2005   Si       0.29488    0.84285    0.07887    1.000
    N2006    N        0.33420    0.82509    0.07904    1.000
    N2007    N        0.31451    0.76099    0.11391    1.000
    N2008    N        0.33709    0.80482    0.00587    1.000
    Si2009   Si       0.29241    0.85745    0.99936    1.000
    Si2010   Si       0.34100    0.79628    0.11035    1.000
    Si2011   Si       0.32658    0.95487    0.05200    1.000
    N2012    N        0.30940    0.93464    0.01802    1.000
    N2013    N        0.30880    0.93654    0.08637    1.000
    N2014    N        0.32072    0.99698    0.05790    1.000
    N2015    N        0.29773    0.78976    0.20609    1.000
    N2016    N        0.31811    0.81461    0.14415    1.000
    Si2017   Si       0.32687    0.81532    0.18635    1.000
    N2018    N        0.32197    0.85800    0.19651    1.000
    Si2019   Si       0.28889    0.87309    0.21939    1.000
    Si2020   Si       0.33459    0.99720    0.17297    1.000
    N2021    N        0.32434    0.98796    0.13218    1.000
    Si2022   Si       0.28964    0.94876    0.22949    1.000
    N2023    N        0.31508    0.92195    0.15391    1.000
    Si2024   Si       0.33025    0.94773    0.12188    1.000
    Si2025   Si       0.33617    0.89622    0.18190    1.000
    N2026    N        0.31661    0.98060    0.21130    1.000
    N2027    N        0.32500    0.91909    0.21846    1.000
    Si2028   Si       0.31438    0.00631    0.24546    1.000
    Si2029   Si       0.32055    0.82009    0.33624    1.000
    N2030    N        0.32605    0.78299    0.31124    1.000
    Si2031   Si       0.31990    0.78092    0.26896    1.000
    N2032    N        0.30174    0.86824    0.26288    1.000
    N2033    N        0.33362    0.85587    0.31610    1.000
    Si2034   Si       0.34291    0.85303    0.27374    1.000
    N2035    N        0.29899    0.98744    0.33605    1.000
    N2036    N        0.30085    0.96914    0.26846    1.000
    Si2037   Si       0.30712    0.95425    0.30811    1.000
    Si2038   Si       0.33677    0.89513    0.33707    1.000
    N2039    N        0.30897    0.90018    0.37149    1.000
    N2040    N        0.28471    0.77984    0.40526    1.000
    N2041    N        0.33472    0.82438    0.37757    1.000
    Si2042   Si       0.31235    0.81155    0.41451    1.000
    N2043    N        0.28818    0.84664    0.42451    1.000
    Si2044   Si       0.34105    0.80031    0.48354    1.000
    Si2045   Si       0.30806    0.88589    0.41294    1.000
    Si2046   Si       0.31644    0.00757    0.37185    1.000
    N2047    N        0.32289    0.90506    0.48548    1.000
    Si2048   Si       0.30038    0.00522    0.44624    1.000
    N2049    N        0.31463    0.96541    0.46483    1.000
    Si2050   Si       0.28814    0.93080    0.47291    1.000
    N2051    N        0.30829    0.85501    0.61044    1.000
    Si2052   Si       0.31773    0.87280    0.51620    1.000
    N2053    N        0.32871    0.76452    0.50744    1.000
    Si2054   Si       0.31228    0.76532    0.61561    1.000
    Si2055   Si       0.30319    0.88366    0.57525    1.000
    N2056    N        0.31548    0.83327    0.49728    1.000
    N2057    N        0.31025    0.95127    0.53643    1.000
    N2058    N        0.30218    0.92114    0.59688    1.000
    Si2059   Si       0.28538    0.76046    0.71273    1.000
    N2060    N        0.31459    0.85603    0.71959    1.000
    N2061    N        0.32701    0.76659    0.69907    1.000
    Si2062   Si       0.32748    0.88742    0.69167    1.000
    N2063    N        0.30705    0.98204    0.69751    1.000
    N2064    N        0.29500    0.91166    0.67529    1.000
    Si2065   Si       0.30414    0.95279    0.66495    1.000
    N2066    N        0.33719    0.96046    0.63840    1.000
    Si2067   Si       0.28903    0.96829    0.73479    1.000
    N2068    N        0.30623    0.77775    0.80494    1.000
    Si2069   Si       0.32634    0.87415    0.80696    1.000
    N2070    N        0.33430    0.83551    0.82527    1.000
    Si2071   Si       0.34069    0.80119    0.79949    1.000
    N2072    N        0.29695    0.00348    0.75953    1.000
    N2073    N        0.32765    0.91051    0.82908    1.000
    Si2074   Si       0.29150    0.92661    0.84800    1.000
    N2075    N        0.30463    0.92916    0.74918    1.000
    N2076    N        0.33576    0.97332    0.84788    1.000
    Si2077   Si       0.34136    0.83318    0.86831    1.000
    N2078    N        0.29417    0.77824    0.94665    1.000
    Si2079   Si       0.30251    0.81881    0.93144    1.000
    N2080    N        0.30206    0.82704    0.88883    1.000
    Si2081   Si       0.31104    0.77263    0.98826    1.000
    N2082    N        0.33255    0.87180    0.99038    1.000
    N2083    N        0.34383    0.81861    0.93951    1.000
    Si2084   Si       0.28507    0.92916    0.92796    1.000
    N2085    N        0.29987    0.93577    0.88856    1.000
    Si2086   Si       0.33478    0.91402    0.99095    1.000
    Si2087   Si       0.32902    0.96681    0.89031    1.000
    N2088    N        0.31564    0.00127    0.91345    1.000
    N2089    N        0.32099    0.93145    0.95239    1.000
    N2090    N        0.36991    0.02858    0.09801    1.000
    Si2091   Si       0.37155    0.13079    0.04226    1.000
    N2092    N        0.40164    0.09795    0.04557    1.000
    N2093    N        0.37936    0.14327    0.08487    1.000
    N2094    N        0.39292    0.14958    0.01068    1.000
    N2095    N        0.38739    0.23386    0.08699    1.000
    Si2096   Si       0.38511    0.19256    0.00641    1.000
    N2097    N        0.35207    0.19585    0.03638    1.000
    Si2098   Si       0.35494    0.15346    0.11976    1.000
    N2099    N        0.35089    0.12427    0.15052    1.000
    N2100    N        0.38565    0.07473    0.19015    1.000
    Si2101   Si       0.35048    0.05884    0.20889    1.000
    Si2102   Si       0.39043    0.10222    0.15491    1.000
    N2103    N        0.35290    0.02933    0.23996    1.000
    Si2104   Si       0.34781    0.19240    0.22553    1.000
    N2105    N        0.37141    0.22398    0.21135    1.000
    N2106    N        0.36201    0.19515    0.13365    1.000
    N2107    N        0.36611    0.15615    0.21162    1.000
    Si2108   Si       0.37783    0.03974    0.27465    1.000
    N2109    N        0.37095    0.10633    0.36867    1.000
    N2110    N        0.34261    0.05397    0.29804    1.000
    Si2111   Si       0.36341    0.19739    0.30593    1.000
    N2112    N        0.35581    0.16594    0.33579    1.000
    N2113    N        0.35558    0.23738    0.31936    1.000
    N2114    N        0.34238    0.19138    0.26784    1.000
    Si2115   Si       0.39922    0.16758    0.34500    1.000
    Si2116   Si       0.34822    0.04760    0.48786    1.000
    N2117    N        0.37990    0.05139    0.40594    1.000
    Si2118   Si       0.34744    0.07525    0.39083    1.000
    N2119    N        0.38305    0.12648    0.44086    1.000
    N2120    N        0.34410    0.09243    0.49275    1.000
    Si2121   Si       0.37026    0.01147    0.42232    1.000
    N2122    N        0.39097    0.04494    0.48879    1.000
    Si2123   Si       0.34143    0.11611    0.45760    1.000
    N2124    N        0.37935    0.21081    0.44824    1.000
    Si2125   Si       0.35661    0.18802    0.47582    1.000
    N2126    N        0.39014    0.16388    0.49502    1.000
    Si2127   Si       0.39058    0.25124    0.46094    1.000
    Si2128   Si       0.37402    0.13588    0.40151    1.000
    Si2129   Si       0.38287    0.09900    0.58774    1.000
    Si2130   Si       0.34885    0.03284    0.56165    1.000
    N2131    N        0.34738    0.07606    0.57237    1.000
    Si2132   Si       0.34816    0.10486    0.53265    1.000
    N2133    N        0.37967    0.12658    0.55365    1.000
    N2134    N        0.38373    0.01091    0.55022    1.000
    N2135    N        0.39000    0.19418    0.55606    1.000
    Si2136   Si       0.35640    0.24390    0.60364    1.000
    Si2137   Si       0.35195    0.21430    0.54483    1.000
    N2138    N        0.35064    0.25430    0.56047    1.000
    N2139    N        0.39901    0.24193    0.60522    1.000
    N2140    N        0.38508    0.11730    0.62907    1.000
    N2141    N        0.35634    0.02018    0.67000    1.000
    Si2142   Si       0.34556    0.12762    0.64561    1.000
    N2143    N        0.34591    0.11927    0.72893    1.000
    Si2144   Si       0.34093    0.20239    0.65735    1.000
    N2145    N        0.37248    0.22560    0.67515    1.000
    N2146    N        0.34381    0.16227    0.67175    1.000
    Si2147   Si       0.39685    0.20099    0.69999    1.000
    N2148    N        0.36965    0.18692    0.73115    1.000
    Si2149   Si       0.37097    0.05983    0.80113    1.000
    N2150    N        0.35274    0.10037    0.79867    1.000
    N2151    N        0.38794    0.06598    0.76059    1.000
    Si2152   Si       0.37418    0.10777    0.76145    1.000
    Si2153   Si       0.39415    0.06196    0.86597    1.000
    N2154    N        0.34482    0.02775    0.79847    1.000
    N2155    N        0.36103    0.03225    0.86912    1.000
    Si2156   Si       0.36008    0.18062    0.84900    1.000
    N2157    N        0.36576    0.19175    0.80965    1.000
    Si2158   Si       0.38747    0.18147    0.77158    1.000
    N2159    N        0.37231    0.25663    0.80945    1.000
    N2160    N        0.38036    0.02647    0.93455    1.000
    N2161    N        0.37686    0.10147    0.87911    1.000
    Si2162   Si       0.37322    0.02420    0.97971    1.000
    N2163    N        0.34878    0.11545    0.96428    1.000
    Si2164   Si       0.34540    0.03304    0.91144    1.000
    Si2165   Si       0.38632    0.13412    0.96973    1.000
    N2166    N        0.34281    0.25634    0.92719    1.000
    N2167    N        0.39381    0.15701    0.93412    1.000
    N2168    N        0.36728    0.20439    0.96786    1.000
    Si2169   Si       0.36305    0.24939    0.88919    1.000
    Si2170   Si       0.39530    0.19981    0.93393    1.000
    N2171    N        0.40028    0.23210    0.90365    1.000
    Si2172   Si       0.36153    0.29782    0.03321    1.000
    N2173    N        0.37539    0.36191    0.11174    1.000
    N2174    N        0.37272    0.29291    0.10890    1.000
    Si2175   Si       0.34698    0.33009    0.10096    1.000
    Si2176   Si       0.35317    0.26032    0.09020    1.000
    N2177    N        0.34261    0.32951    0.05513    1.000
    N2178    N        0.37261    0.39498    0.00974    1.000
    N2179    N        0.38744    0.45947    0.02897    1.000
    Si2180   Si       0.35902    0.42765    0.03459    1.000
    Si2181   Si       0.37414    0.40559    0.10197    1.000
    Si2182   Si       0.39845    0.49698    0.00983    1.000
    Si2183   Si       0.37064    0.34064    0.20487    1.000
    N2184    N        0.39153    0.31494    0.17612    1.000
    N2185    N        0.38623    0.38265    0.19586    1.000
    Si2186   Si       0.35566    0.46015    0.15014    1.000
    N2187    N        0.37200    0.44650    0.23000    1.000
    Si2188   Si       0.38251    0.40227    0.23287    1.000
    N2189    N        0.37633    0.42407    0.14128    1.000
    N2190    N        0.38566    0.49130    0.15870    1.000
    N2191    N        0.36909    0.32976    0.30371    1.000
    Si2192   Si       0.38275    0.31995    0.34502    1.000
    Si2193   Si       0.38016    0.30343    0.27158    1.000
    N2194    N        0.39541    0.27957    0.35556    1.000
    Si2195   Si       0.34782    0.36489    0.29324    1.000
    N2196    N        0.33941    0.29053    0.25833    1.000
    N2197    N        0.34913    0.32981    0.37163    1.000
    N2198    N        0.35097    0.38313    0.25360    1.000
    N2199    N        0.36477    0.39609    0.31880    1.000
    Si2200   Si       0.35446    0.49250    0.30713    1.000
    N2201    N        0.35119    0.50321    0.35219    1.000
    N2202    N        0.39563    0.49975    0.29951    1.000
    N2203    N        0.38101    0.27560    0.42539    1.000
    N2204    N        0.38128    0.36869    0.42878    1.000
    Si2205   Si       0.39217    0.36273    0.46965    1.000
    Si2206   Si       0.34808    0.34886    0.41110    1.000
    N2207    N        0.35411    0.36697    0.49303    1.000
    N2208    N        0.38925    0.46191    0.48336    1.000
    Si2209   Si       0.39331    0.40698    0.41073    1.000
    N2210    N        0.36185    0.43443    0.42526    1.000
    Si2211   Si       0.38936    0.49958    0.37438    1.000
    Si2212   Si       0.39182    0.46137    0.44019    1.000
    N2213    N        0.39169    0.49856    0.41761    1.000
    Si2214   Si       0.35880    0.29423    0.54461    1.000
    Si2215   Si       0.34915    0.31826    0.61742    1.000
    N2216    N        0.37560    0.27172    0.49809    1.000
    N2217    N        0.39107    0.33107    0.61852    1.000
    Si2218   Si       0.37875    0.49933    0.57847    1.000
    N2219    N        0.35802    0.49959    0.54340    1.000
    N2220    N        0.37715    0.39255    0.58113    1.000
    N2221    N        0.36565    0.46085    0.59826    1.000
    Si2222   Si       0.34690    0.42315    0.58344    1.000
    Si2223   Si       0.36223    0.49226    0.49826    1.000
    Si2224   Si       0.37158    0.26610    0.66830    1.000
    Si2225   Si       0.36586    0.31842    0.72214    1.000
    N2226    N        0.34823    0.28737    0.69881    1.000
    N2227    N        0.34870    0.27589    0.63174    1.000
    N2228    N        0.39215    0.33958    0.69386    1.000
    Si2229   Si       0.37648    0.48789    0.70631    1.000
    Si2230   Si       0.37121    0.41323    0.69336    1.000
    N2231    N        0.35752    0.48872    0.66753    1.000
    N2232    N        0.36026    0.50129    0.74356    1.000
    N2233    N        0.36905    0.44723    0.71865    1.000
    Si2234   Si       0.37498    0.45725    0.64072    1.000
    N2235    N        0.36208    0.41664    0.65072    1.000
    Si2236   Si       0.38016    0.34213    0.79036    1.000
    Si2237   Si       0.35035    0.28766    0.83148    1.000
    N2238    N        0.34986    0.32756    0.81594    1.000
    N2239    N        0.38887    0.31139    0.75672    1.000
    N2240    N        0.36614    0.37749    0.77289    1.000
    N2241    N        0.36558    0.28855    0.87189    1.000
    Si2242   Si       0.36686    0.39114    0.86473    1.000
    N2243    N        0.39411    0.39276    0.83064    1.000
    N2244    N        0.37153    0.44864    0.79175    1.000
    Si2245   Si       0.38735    0.41027    0.79130    1.000
    Si2246   Si       0.38332    0.48074    0.82025    1.000
    Si2247   Si       0.34695    0.45813    0.75479    1.000
    N2248    N        0.40507    0.48282    0.85927    1.000
    N2249    N        0.34437    0.49276    0.83649    1.000
    N2250    N        0.38832    0.30980    0.93457    1.000
    N2251    N        0.36115    0.35520    0.89038    1.000
    Si2252   Si       0.39062    0.31960    0.89296    1.000
    N2253    N        0.36255    0.29384    0.98964    1.000
    Si2254   Si       0.34933    0.29436    0.94655    1.000
    N2255    N        0.35228    0.50259    0.90309    1.000
    Si2256   Si       0.38260    0.41859    0.93382    1.000
    Si2257   Si       0.35428    0.49246    0.94739    1.000
    N2258    N        0.38313    0.46009    0.94779    1.000
    N2259    N        0.38690    0.41982    0.89094    1.000
    N2260    N        0.34140    0.40748    0.94707    1.000
    N2261    N        0.38571    0.58339    0.06449    1.000
    N2262    N        0.35335    0.52682    0.07516    1.000
    Si2263   Si       0.37430    0.62579    0.05560    1.000
    Si2264   Si       0.39638    0.52910    0.07914    1.000
    N2265    N        0.38180    0.64443    0.01575    1.000
    N2266    N        0.36279    0.71369    0.10317    1.000
    N2267    N        0.37976    0.70498    0.02203    1.000
    N2268    N        0.35126    0.64010    0.09587    1.000
    Si2269   Si       0.39145    0.75071    0.09361    1.000
    Si2270   Si       0.36700    0.52619    0.17552    1.000
    N2271    N        0.37624    0.61937    0.21574    1.000
    N2272    N        0.39225    0.56051    0.18459    1.000
    N2273    N        0.34622    0.50971    0.21317    1.000
    Si2274   Si       0.36626    0.62755    0.13577    1.000
    Si2275   Si       0.39913    0.58209    0.22423    1.000
    Si2276   Si       0.34603    0.53830    0.24483    1.000
    Si2277   Si       0.38912    0.70427    0.14072    1.000
    N2278    N        0.38540    0.72817    0.17780    1.000
    N2279    N        0.35526    0.67080    0.15206    1.000
    Si2280   Si       0.38404    0.72397    0.22157    1.000
    Si2281   Si       0.38577    0.66011    0.23026    1.000
    N2282    N        0.35455    0.69126    0.22713    1.000
    N2283    N        0.39142    0.75683    0.24982    1.000
    N2284    N        0.35973    0.57094    0.34281    1.000
    N2285    N        0.38949    0.54769    0.25019    1.000
    N2286    N        0.36223    0.63731    0.32481    1.000
    N2287    N        0.38111    0.69734    0.35566    1.000
    Si2288   Si       0.35000    0.67865    0.33301    1.000
    Si2289   Si       0.35040    0.74729    0.32427    1.000
    Si2290   Si       0.37235    0.53432    0.43322    1.000
    N2291    N        0.35862    0.60289    0.45776    1.000
    N2292    N        0.36244    0.52929    0.47472    1.000
    Si2293   Si       0.35907    0.56989    0.49079    1.000
    Si2294   Si       0.39829    0.60951    0.43834    1.000
    N2295    N        0.39671    0.74068    0.49646    1.000
    Si2296   Si       0.36804    0.72831    0.38479    1.000
    N2297    N        0.38565    0.64673    0.41758    1.000
    N2298    N        0.35681    0.71102    0.42185    1.000
    N2299    N        0.37244    0.67596    0.47676    1.000
    Si2300   Si       0.38928    0.68519    0.43793    1.000
    Si2301   Si       0.34341    0.64439    0.47042    1.000
    Si2302   Si       0.34540    0.65080    0.39746    1.000
    N2303    N        0.36921    0.53258    0.60265    1.000
    N2304    N        0.38384    0.57293    0.52847    1.000
    Si2305   Si       0.34949    0.59773    0.54710    1.000
    Si2306   Si       0.39699    0.56036    0.62002    1.000
    N2307    N        0.36837    0.63536    0.55460    1.000
    N2308    N        0.36581    0.68857    0.60894    1.000
    Si2309   Si       0.38031    0.70221    0.51150    1.000
    Si2310   Si       0.34939    0.67267    0.56932    1.000
    N2311    N        0.34999    0.70639    0.54267    1.000
    Si2312   Si       0.36078    0.61623    0.66896    1.000
    N2313    N        0.36862    0.58800    0.63691    1.000
    N2314    N        0.39165    0.61707    0.69966    1.000
    Si2315   Si       0.37830    0.63668    0.73734    1.000
    N2316    N        0.37991    0.67902    0.72580    1.000
    Si2317   Si       0.35382    0.68783    0.69176    1.000
    Si2318   Si       0.39739    0.69740    0.63843    1.000
    N2319    N        0.37020    0.71981    0.66962    1.000
    N2320    N        0.34553    0.65700    0.66216    1.000
    N2321    N        0.37921    0.74690    0.74410    1.000
    Si2322   Si       0.38048    0.53010    0.77081    1.000
    N2323    N        0.35260    0.59849    0.82824    1.000
    N2324    N        0.39287    0.55210    0.86264    1.000
    Si2325   Si       0.36177    0.58119    0.86832    1.000
    N2326    N        0.34329    0.62152    0.75671    1.000
    Si2327   Si       0.36135    0.63917    0.84557    1.000
    Si2328   Si       0.39056    0.74382    0.78820    1.000
    N2329    N        0.39224    0.66582    0.83510    1.000
    N2330    N        0.35375    0.70811    0.86532    1.000
    N2331    N        0.34961    0.72112    0.79521    1.000
    Si2332   Si       0.39629    0.70167    0.86156    1.000
    N2333    N        0.36172    0.50722    0.98773    1.000
    Si2334   Si       0.39269    0.62306    0.97970    1.000
    N2335    N        0.35571    0.61347    0.96112    1.000
    N2336    N        0.36626    0.62046    0.88705    1.000
    Si2337   Si       0.38975    0.51502    0.88408    1.000
    Si2338   Si       0.34576    0.63285    0.92403    1.000
    N2339    N        0.35604    0.67591    0.92638    1.000
    Si2340   Si       0.39736    0.68425    0.93400    1.000
    Si2341   Si       0.37962    0.73605    0.99189    1.000
    Si2342   Si       0.35396    0.80572    0.04586    1.000
    N2343    N        0.35799    0.76704    0.06693    1.000
    N2344    N        0.39366    0.82147    0.03838    1.000
    N2345    N        0.39015    0.87824    0.08567    1.000
    N2346    N        0.36783    0.94181    0.04613    1.000
    Si2347   Si       0.38671    0.95489    0.00881    1.000
    Si2348   Si       0.38912    0.92238    0.07808    1.000
    N2349    N        0.37288    0.93732    0.11638    1.000
    N2350    N        0.38097    0.78587    0.12507    1.000
    N2351    N        0.37060    0.79886    0.19164    1.000
    Si2352   Si       0.37875    0.79682    0.23549    1.000
    Si2353   Si       0.39915    0.80212    0.15890    1.000
    Si2354   Si       0.38889    0.93928    0.15511    1.000
    Si2355   Si       0.35373    0.95314    0.21669    1.000
    N2356    N        0.38001    0.90388    0.18027    1.000
    N2357    N        0.36857    0.96854    0.17822    1.000
    N2358    N        0.39235    0.76295    0.32386    1.000
    N2359    N        0.34360    0.81313    0.25573    1.000
    N2360    N        0.37554    0.88100    0.26730    1.000
    N2361    N        0.37207    0.88936    0.35865    1.000
    Si2362   Si       0.37557    0.92312    0.28159    1.000
    N2363    N        0.37869    0.95227    0.25072    1.000
    N2364    N        0.34077    0.92809    0.31048    1.000
    N2365    N        0.34588    0.80098    0.43948    1.000
    Si2366   Si       0.38400    0.79613    0.42087    1.000
    Si2367   Si       0.36402    0.85560    0.38669    1.000
    N2368    N        0.39179    0.76424    0.39315    1.000
    N2369    N        0.35123    0.87836    0.42118    1.000
    N2370    N        0.39841    0.83226    0.40056    1.000
    N2371    N        0.40045    0.86791    0.47704    1.000
    Si2372   Si       0.38997    0.88861    0.44048    1.000
    Si2373   Si       0.35106    0.93864    0.47514    1.000
    N2374    N        0.34999    0.99105    0.39091    1.000
    N2375    N        0.38538    0.93153    0.44973    1.000
    N2376    N        0.37228    0.83521    0.59460    1.000
    Si2377   Si       0.38378    0.79175    0.59782    1.000
    Si2378   Si       0.37769    0.87238    0.57400    1.000
    N2379    N        0.37641    0.76958    0.56079    1.000
    Si2380   Si       0.39727    0.77602    0.52270    1.000
    N2381    N        0.37853    0.80918    0.50087    1.000
    N2382    N        0.34120    0.88650    0.55232    1.000
    N2383    N        0.36630    0.94743    0.57613    1.000
    N2384    N        0.37613    0.93014    0.51116    1.000
    N2385    N        0.37051    0.89460    0.61424    1.000
    Si2386   Si       0.39641    0.97647    0.57314    1.000
    Si2387   Si       0.34714    0.93012    0.54287    1.000
    N2388    N        0.39472    0.99253    0.61367    1.000
    Si2389   Si       0.34410    0.92949    0.60848    1.000
    Si2390   Si       0.34926    0.85373    0.62544    1.000
    N2391    N        0.35210    0.77790    0.62611    1.000
    N2392    N        0.39251    0.85240    0.72602    1.000
    N2393    N        0.35340    0.86032    0.66837    1.000
    Si2394   Si       0.36044    0.77895    0.72482    1.000
    N2395    N        0.38610    0.78694    0.69086    1.000
    Si2396   Si       0.39506    0.85959    0.68429    1.000
    Si2397   Si       0.35167    0.84777    0.74174    1.000
    Si2398   Si       0.35931    0.76140    0.66664    1.000
    Si2399   Si       0.35373    0.99996    0.63107    1.000
    Si2400   Si       0.39690    0.93153    0.69875    1.000
    N2401    N        0.40122    0.96882    0.67754    1.000
    N2402    N        0.37059    0.99654    0.73682    1.000
    N2403    N        0.35655    0.91673    0.70920    1.000
    Si2404   Si       0.38648    0.00463    0.69751    1.000
    N2405    N        0.37662    0.77896    0.81114    1.000
    Si2406   Si       0.39591    0.78138    0.84983    1.000
    N2407    N        0.34670    0.80726    0.75606    1.000
    N2408    N        0.34889    0.88129    0.77034    1.000
    N2409    N        0.36346    0.94862    0.78441    1.000
    Si2410   Si       0.35793    0.94206    0.82660    1.000
    Si2411   Si       0.39412    0.97248    0.76483    1.000
    N2412    N        0.39917    0.93553    0.84720    1.000
    Si2413   Si       0.34749    0.92287    0.75239    1.000
    N2414    N        0.37017    0.86468    0.87439    1.000
    N2415    N        0.36377    0.79725    0.87521    1.000
    Si2416   Si       0.36136    0.78673    0.91734    1.000
    Si2417   Si       0.35309    0.83488    0.97796    1.000
    N2418    N        0.39550    0.84416    0.97066    1.000
    N2419    N        0.40255    0.78689    0.93035    1.000
    N2420    N        0.37889    0.92090    0.97852    1.000
    Si2421   Si       0.36191    0.95134    0.95051    1.000
    N2422    N        0.36488    0.98158    0.98234    1.000
    N2423    N        0.36770    0.95855    0.90852    1.000
    Si2424   Si       0.42158    0.05736    0.03973    1.000
    Si2425   Si       0.42927    0.11560    0.01323    1.000
    N2426    N        0.43752    0.03616    0.07535    1.000
    Si2427   Si       0.41015    0.11119    0.08691    1.000
    Si2428   Si       0.41058    0.04016    0.11005    1.000
    N2429    N        0.40656    0.03249    0.00857    1.000
    N2430    N        0.45514    0.07755    0.02162    1.000
    N2431    N        0.44877    0.13170    0.09460    1.000
    N2432    N        0.40035    0.08248    0.11754    1.000
    Si2433   Si       0.41504    0.24760    0.05484    1.000
    N2434    N        0.41314    0.22298    0.01865    1.000
    N2435    N        0.43562    0.19618    0.11426    1.000
    N2436    N        0.45588    0.24649    0.06828    1.000
    N2437    N        0.46117    0.14237    0.02480    1.000
    N2438    N        0.42524    0.02529    0.14616    1.000
    Si2439   Si       0.42024    0.08391    0.21598    1.000
    N2440    N        0.42687    0.12797    0.22058    1.000
    N2441    N        0.41529    0.13825    0.15606    1.000
    N2442    N        0.40689    0.24658    0.15344    1.000
    Si2443   Si       0.40749    0.15736    0.19777    1.000
    Si2444   Si       0.44650    0.15578    0.12903    1.000
    Si2445   Si       0.40947    0.23228    0.19709    1.000
    N2446    N        0.43003    0.19390    0.19723    1.000
    Si2447   Si       0.39803    0.21432    0.12271    1.000
    Si2448   Si       0.43818    0.07235    0.28609    1.000
    Si2449   Si       0.43227    0.01927    0.32114    1.000
    N2450    N        0.41165    0.06586    0.31983    1.000
    Si2451   Si       0.40828    0.09675    0.35056    1.000
    N2452    N        0.40726    0.06818    0.25451    1.000
    N2453    N        0.42860    0.02049    0.36605    1.000
    N2454    N        0.42105    0.13293    0.33134    1.000
    Si2455   Si       0.39936    0.25085    0.32302    1.000
    N2456    N        0.44542    0.23976    0.33279    1.000
    Si2457   Si       0.44779    0.20895    0.30183    1.000
    N2458    N        0.40595    0.19827    0.31382    1.000
    Si2459   Si       0.46055    0.22611    0.37260    1.000
    N2460    N        0.44235    0.05520    0.43720    1.000
    N2461    N        0.42982    0.10660    0.48805    1.000
    Si2462   Si       0.42235    0.04966    0.39867    1.000
    Si2463   Si       0.43199    0.06339    0.47853    1.000
    N2464    N        0.43403    0.08935    0.38463    1.000
    N2465    N        0.43818    0.17398    0.44626    1.000
    Si2466   Si       0.41103    0.19508    0.41884    1.000
    N2467    N        0.40291    0.16692    0.38778    1.000
    Si2468   Si       0.41458    0.14114    0.46732    1.000
    N2469    N        0.42624    0.23056    0.39813    1.000
    N2470    N        0.41790    0.07810    0.57437    1.000
    N2471    N        0.44744    0.04111    0.51436    1.000
    Si2472   Si       0.40861    0.01574    0.51345    1.000
    Si2473   Si       0.45142    0.06103    0.55470    1.000
    N2474    N        0.44625    0.15568    0.53894    1.000
    Si2475   Si       0.41882    0.20791    0.58744    1.000
    N2476    N        0.42243    0.17191    0.60964    1.000
    N2477    N        0.45256    0.21981    0.56344    1.000
    Si2478   Si       0.40284    0.15825    0.53723    1.000
    N2479    N        0.43705    0.09681    0.72862    1.000
    N2480    N        0.42015    0.03217    0.70440    1.000
    Si2481   Si       0.42440    0.05788    0.73969    1.000
    Si2482   Si       0.45706    0.02783    0.68348    1.000
    N2483    N        0.45511    0.12662    0.65511    1.000
    N2484    N        0.41407    0.16795    0.67793    1.000
    Si2485   Si       0.45657    0.15650    0.68660    1.000
    N2486    N        0.43066    0.22754    0.71117    1.000
    N2487    N        0.45691    0.16753    0.72996    1.000
    Si2488   Si       0.41665    0.14319    0.64154    1.000
    N2489    N        0.46026    0.22927    0.62206    1.000
    Si2490   Si       0.45470    0.20909    0.74708    1.000
    Si2491   Si       0.43772    0.02592    0.80618    1.000
    N2492    N        0.45451    0.04720    0.77127    1.000
    N2493    N        0.40638    0.05200    0.82525    1.000
    Si2494   Si       0.44192    0.13315    0.75301    1.000
    N2495    N        0.41994    0.20812    0.77296    1.000
    N2496    N        0.43104    0.22009    0.83737    1.000
    Si2497   Si       0.43887    0.18254    0.85619    1.000
    Si2498   Si       0.41236    0.23848    0.80453    1.000
    N2499    N        0.40136    0.14136    0.76831    1.000
    N2500    N        0.39867    0.16634    0.86413    1.000
    Si2501   Si       0.41893    0.01684    0.91994    1.000
    Si2502   Si       0.45453    0.11801    0.94245    1.000
    N2503    N        0.42237    0.11001    0.97004    1.000
    N2504    N        0.44002    0.12221    0.89944    1.000
    N2505    N        0.42640    0.05155    0.89416    1.000
    Si2506   Si       0.39929    0.13502    0.89412    1.000
    Si2507   Si       0.44291    0.23085    0.90976    1.000
    Si2508   Si       0.44157    0.23347    0.98857    1.000
    N2509    N        0.43262    0.21566    0.95067    1.000
    Si2510   Si       0.43177    0.32289    0.03727    1.000
    N2511    N        0.42785    0.35068    0.07127    1.000
    Si2512   Si       0.41709    0.35149    0.11502    1.000
    N2513    N        0.40244    0.28814    0.04552    1.000
    N2514    N        0.41514    0.33930    0.00043    1.000
    Si2515   Si       0.43976    0.39166    0.06447    1.000
    N2516    N        0.44192    0.39598    0.02222    1.000
    Si2517   Si       0.41755    0.45658    0.06154    1.000
    N2518    N        0.40752    0.41704    0.07794    1.000
    N2519    N        0.40804    0.48759    0.08979    1.000
    N2520    N        0.45686    0.45775    0.04368    1.000
    Si2521   Si       0.39948    0.28931    0.14220    1.000
    N2522    N        0.43497    0.31521    0.13037    1.000
    Si2523   Si       0.42351    0.30917    0.20720    1.000
    N2524    N        0.42833    0.26760    0.21724    1.000
    N2525    N        0.43265    0.38516    0.13937    1.000
    N2526    N        0.39571    0.32381    0.23703    1.000
    N2527    N        0.43320    0.48486    0.24191    1.000
    N2528    N        0.42926    0.43721    0.18667    1.000
    Si2529   Si       0.40683    0.40585    0.16541    1.000
    N2530    N        0.45592    0.47966    0.13747    1.000
    Si2531   Si       0.41772    0.49890    0.13038    1.000
    Si2532   Si       0.41570    0.45066    0.22534    1.000
    N2533    N        0.41942    0.41465    0.25016    1.000
    N2534    N        0.41509    0.34593    0.34701    1.000
    Si2535   Si       0.44228    0.26731    0.25906    1.000
    Si2536   Si       0.45230    0.32888    0.36024    1.000
    N2537    N        0.40504    0.27193    0.28497    1.000
    Si2538   Si       0.40509    0.38529    0.33400    1.000
    N2539    N        0.43459    0.41104    0.31643    1.000
    N2540    N        0.41654    0.47064    0.35522    1.000
    Si2541   Si       0.43560    0.43198    0.35416    1.000
    Si2542   Si       0.45225    0.40938    0.27577    1.000
    Si2543   Si       0.42935    0.50550    0.32799    1.000
    N2544    N        0.44508    0.30444    0.39712    1.000
    Si2545   Si       0.41124    0.27343    0.39566    1.000
    N2546    N        0.41761    0.33073    0.48477    1.000
    Si2547   Si       0.45248    0.35652    0.48775    1.000
    N2548    N        0.43187    0.25795    0.46953    1.000
    N2549    N        0.40773    0.40670    0.37151    1.000
    N2550    N        0.42486    0.39109    0.48244    1.000
    Si2551   Si       0.42100    0.43187    0.49629    1.000
    N2552    N        0.42389    0.43728    0.42531    1.000
    N2553    N        0.43873    0.36568    0.57540    1.000
    N2554    N        0.44587    0.29383    0.59919    1.000
    Si2555   Si       0.41962    0.32539    0.58239    1.000
    Si2556   Si       0.41678    0.29292    0.50634    1.000
    N2557    N        0.40102    0.30747    0.54941    1.000
    N2558    N        0.44532    0.43102    0.59398    1.000
    Si2559   Si       0.41682    0.40158    0.57178    1.000
    N2560    N        0.41867    0.42928    0.53886    1.000
    Si2561   Si       0.44033    0.45929    0.56133    1.000
    N2562    N        0.42232    0.49594    0.57387    1.000
    Si2563   Si       0.43172    0.26193    0.62358    1.000
    N2564    N        0.41510    0.28059    0.66245    1.000
    Si2565   Si       0.42812    0.36259    0.70458    1.000
    N2566    N        0.44679    0.28860    0.73438    1.000
    Si2567   Si       0.41101    0.32316    0.65871    1.000
    N2568    N        0.44782    0.34616    0.66848    1.000
    Si2569   Si       0.44107    0.26620    0.69623    1.000
    N2570    N        0.45381    0.44640    0.72398    1.000
    N2571    N        0.41485    0.46417    0.66163    1.000
    Si2572   Si       0.43153    0.50246    0.66959    1.000
    N2573    N        0.41550    0.40158    0.69373    1.000
    Si2574   Si       0.44130    0.43508    0.68221    1.000
    N2575    N        0.42170    0.33176    0.80488    1.000
    Si2576   Si       0.42949    0.30262    0.77207    1.000
    Si2577   Si       0.44962    0.33306    0.83722    1.000
    N2578    N        0.44054    0.26852    0.79428    1.000
    N2579    N        0.42885    0.40871    0.77928    1.000
    Si2580   Si       0.43645    0.39951    0.82297    1.000
    N2581    N        0.44675    0.43317    0.84852    1.000
    Si2582   Si       0.45125    0.50443    0.79397    1.000
    N2583    N        0.40843    0.50684    0.79700    1.000
    Si2584   Si       0.40343    0.30642    0.97400    1.000
    N2585    N        0.43214    0.32274    0.87797    1.000
    N2586    N        0.43464    0.27647    0.98055    1.000
    Si2587   Si       0.41183    0.38060    0.99486    1.000
    Si2588   Si       0.41954    0.44670    0.87935    1.000
    Si2589   Si       0.42374    0.47758    0.94426    1.000
    N2590    N        0.44277    0.44752    0.91507    1.000
    N2591    N        0.41508    0.39780    0.95460    1.000
    N2592    N        0.43274    0.48925    0.98529    1.000
    Si2593   Si       0.45201    0.41084    0.93929    1.000
    Si2594   Si       0.43063    0.56446    0.02604    1.000
    Si2595   Si       0.42374    0.60355    0.08909    1.000
    N2596    N        0.45125    0.57904    0.06434    1.000
    N2597    N        0.41026    0.52887    0.03764    1.000
    N2598    N        0.41363    0.54179    0.11796    1.000
    N2599    N        0.41556    0.64019    0.06672    1.000
    Si2600   Si       0.45292    0.73463    0.07991    1.000
    Si2601   Si       0.41163    0.67475    0.03297    1.000
    N2602    N        0.43477    0.69793    0.06731    1.000
    N2603    N        0.44737    0.67886    0.00568    1.000
    Si2604   Si       0.45242    0.65982    0.07948    1.000
    Si2605   Si       0.41763    0.57046    0.14988    1.000
    N2606    N        0.43547    0.59546    0.24163    1.000
    N2607    N        0.40488    0.60793    0.13070    1.000
    Si2608   Si       0.44067    0.63097    0.14945    1.000
    N2609    N        0.45865    0.58682    0.15993    1.000
    Si2610   Si       0.43849    0.68646    0.18322    1.000
    N2611    N        0.42052    0.73100    0.12092    1.000
    N2612    N        0.41651    0.69017    0.22083    1.000
    N2613    N        0.42114    0.67273    0.14643    1.000
    Si2614   Si       0.45050    0.74988    0.14643    1.000
    N2615    N        0.41875    0.59315    0.30760    1.000
    Si2616   Si       0.41569    0.51584    0.26530    1.000
    N2617    N        0.41587    0.53459    0.36111    1.000
    Si2618   Si       0.44902    0.58000    0.27987    1.000
    N2619    N        0.44885    0.53617    0.28863    1.000
    Si2620   Si       0.40247    0.57402    0.34272    1.000
    Si2621   Si       0.45235    0.63006    0.36514    1.000
    Si2622   Si       0.40207    0.63257    0.30607    1.000
    N2623    N        0.43973    0.72519    0.36182    1.000
    N2624    N        0.42972    0.65434    0.33448    1.000
    N2625    N        0.42525    0.71005    0.29372    1.000
    Si2626   Si       0.41968    0.69646    0.33406    1.000
    Si2627   Si       0.44062    0.68718    0.25746    1.000
    Si2628   Si       0.41234    0.75204    0.28663    1.000
    N2629    N        0.40101    0.65271    0.26881    1.000
    N2630    N        0.42796    0.59624    0.37421    1.000
    N2631    N        0.43399    0.61536    0.46008    1.000
    Si2632   Si       0.43217    0.55993    0.39777    1.000
    N2633    N        0.40136    0.56621    0.42832    1.000
    Si2634   Si       0.45947    0.62353    0.49528    1.000
    Si2635   Si       0.42578    0.74588    0.46502    1.000
    Si2636   Si       0.45175    0.70605    0.39925    1.000
    N2637    N        0.42400    0.71346    0.43365    1.000
    N2638    N        0.43494    0.61671    0.53070    1.000
    Si2639   Si       0.42360    0.57823    0.54440    1.000
    Si2640   Si       0.44093    0.61299    0.60567    1.000
    N2641    N        0.41669    0.58212    0.58832    1.000
    N2642    N        0.45682    0.55195    0.53848    1.000
    Si2643   Si       0.41160    0.64708    0.55099    1.000
    N2644    N        0.43032    0.65167    0.59015    1.000
    N2645    N        0.41416    0.68523    0.53090    1.000
    Si2646   Si       0.44962    0.68970    0.59234    1.000
    N2647    N        0.42758    0.71819    0.61592    1.000
    Si2648   Si       0.45357    0.70137    0.51930    1.000
    Si2649   Si       0.45494    0.56661    0.66162    1.000
    N2650    N        0.42654    0.53773    0.64293    1.000
    Si2651   Si       0.43488    0.54290    0.73155    1.000
    N2652    N        0.44232    0.60667    0.64838    1.000
    N2653    N        0.41248    0.51356    0.70647    1.000
    N2654    N        0.45459    0.57029    0.70432    1.000
    Si2655   Si       0.44903    0.75525    0.62412    1.000
    N2656    N        0.45906    0.63763    0.70885    1.000
    Si2657   Si       0.40381    0.70966    0.73918    1.000
    Si2658   Si       0.42893    0.63040    0.68052    1.000
    N2659    N        0.44608    0.70839    0.73124    1.000
    N2660    N        0.41365    0.66731    0.66269    1.000
    N2661    N        0.42983    0.59398    0.82255    1.000
    Si2662   Si       0.42581    0.59643    0.77950    1.000
    Si2663   Si       0.43125    0.55670    0.84386    1.000
    N2664    N        0.40706    0.56203    0.75805    1.000
    Si2665   Si       0.45760    0.62304    0.83881    1.000
    N2666    N        0.46064    0.51593    0.75178    1.000
    N2667    N        0.40669    0.63356    0.76999    1.000
    Si2668   Si       0.41598    0.66674    0.79803    1.000
    N2669    N        0.41246    0.70688    0.78217    1.000
    N2670    N        0.41363    0.74243    0.86187    1.000
    N2671    N        0.45670    0.65623    0.81234    1.000
    Si2672   Si       0.45203    0.53565    0.91901    1.000
    N2673    N        0.41668    0.51209    0.91958    1.000
    N2674    N        0.45640    0.57709    0.93373    1.000
    Si2675   Si       0.45665    0.58568    0.97489    1.000
    N2676    N        0.45867    0.62739    0.88030    1.000
    N2677    N        0.41909    0.59297    0.99537    1.000
    N2678    N        0.41547    0.68422    0.89582    1.000
    N2679    N        0.41746    0.64996    0.95340    1.000
    Si2680   Si       0.45527    0.66864    0.89348    1.000
    N2681    N        0.45842    0.75017    0.92213    1.000
    Si2682   Si       0.45545    0.74020    0.87900    1.000
    Si2683   Si       0.45750    0.65651    0.96875    1.000
    N2684    N        0.40047    0.72129    0.95488    1.000
    N2685    N        0.44244    0.84365    0.08232    1.000
    Si2686   Si       0.42208    0.78816    0.03251    1.000
    Si2687   Si       0.41122    0.85748    0.05418    1.000
    N2688    N        0.42430    0.76553    0.06839    1.000
    Si2689   Si       0.41821    0.86212    0.11581    1.000
    N2690    N        0.40952    0.76650    0.99623    1.000
    N2691    N        0.41987    0.88569    0.02328    1.000
    N2692    N        0.42378    0.97085    0.01965    1.000
    N2693    N        0.43186    0.93311    0.07882    1.000
    Si2694   Si       0.45355    0.95319    0.04615    1.000
    Si2695   Si       0.46064    0.88958    0.00718    1.000
    N2696    N        0.40213    0.84546    0.15135    1.000
    N2697    N        0.44153    0.78836    0.16151    1.000
    N2698    N        0.43431    0.87929    0.21776    1.000
    Si2699   Si       0.41556    0.87794    0.17699    1.000
    Si2700   Si       0.44784    0.92952    0.11912    1.000
    N2701    N        0.44294    0.89063    0.14096    1.000
    Si2702   Si       0.43342    0.99311    0.17172    1.000
    N2703    N        0.42755    0.99531    0.21427    1.000
    N2704    N        0.42776    0.95485    0.14847    1.000
    N2705    N        0.43948    0.85424    0.29087    1.000
    Si2706   Si       0.44741    0.81537    0.27056    1.000
    N2707    N        0.45075    0.77533    0.28424    1.000
    Si2708   Si       0.41251    0.86502    0.25266    1.000
    Si2709   Si       0.41960    0.76780    0.35931    1.000
    N2710    N        0.43834    0.88005    0.36152    1.000
    N2711    N        0.41365    0.82246    0.24445    1.000
    N2712    N        0.45136    0.96071    0.25941    1.000
    Si2713   Si       0.41357    0.97986    0.25373    1.000
    N2714    N        0.41054    0.92704    0.31001    1.000
    Si2715   Si       0.40660    0.91212    0.35053    1.000
    Si2716   Si       0.45207    0.94431    0.30320    1.000
    N2717    N        0.40569    0.00776    0.28591    1.000
    Si2718   Si       0.41583    0.82420    0.48027    1.000
    N2719    N        0.41527    0.78822    0.45075    1.000
    Si2720   Si       0.43508    0.85365    0.39754    1.000
    N2721    N        0.46013    0.83461    0.47616    1.000
    Si2722   Si       0.43514    0.98244    0.38825    1.000
    N2723    N        0.43193    0.88808    0.42612    1.000
    Si2724   Si       0.41756    0.96104    0.45399    1.000
    N2725    N        0.45776    0.94579    0.43821    1.000
    Si2726   Si       0.45698    0.90627    0.45901    1.000
    Si2727   Si       0.45214    0.91697    0.39757    1.000
    N2728    N        0.42346    0.94217    0.37689    1.000
    N2729    N        0.42327    0.98329    0.49012    1.000
    N2730    N        0.40916    0.99183    0.42448    1.000
    N2731    N        0.43594    0.79397    0.52075    1.000
    N2732    N        0.42429    0.79136    0.60998    1.000
    N2733    N        0.43355    0.86835    0.60755    1.000
    Si2734   Si       0.44884    0.87422    0.56581    1.000
    N2735    N        0.40904    0.87840    0.54712    1.000
    N2736    N        0.43492    0.96189    0.55731    1.000
    Si2737   Si       0.44925    0.95554    0.51685    1.000
    Si2738   Si       0.40526    0.89766    0.50754    1.000
    N2739    N        0.44454    0.91603    0.49857    1.000
    N2740    N        0.43162    0.93533    0.62137    1.000
    Si2741   Si       0.44392    0.82963    0.62533    1.000
    N2742    N        0.45463    0.81472    0.72478    1.000
    Si2743   Si       0.42900    0.79773    0.69001    1.000
    N2744    N        0.42426    0.83388    0.66599    1.000
    N2745    N        0.44828    0.76720    0.66713    1.000
    Si2746   Si       0.43271    0.84933    0.74267    1.000
    Si2747   Si       0.42370    0.97375    0.64109    1.000
    N2748    N        0.41196    0.89846    0.67377    1.000
    N2749    N        0.41217    0.94207    0.73829    1.000
    N2750    N        0.45441    0.00302    0.64708    1.000
    N2751    N        0.45089    0.88737    0.72926    1.000
    Si2752   Si       0.45526    0.89850    0.68611    1.000
    Si2753   Si       0.41311    0.89765    0.63006    1.000
    N2754    N        0.43069    0.80556    0.84426    1.000
    N2755    N        0.43292    0.84258    0.78564    1.000
    Si2756   Si       0.44401    0.80302    0.80364    1.000
    N2757    N        0.43622    0.87252    0.84767    1.000
    N2758    N        0.43530    0.76730    0.78027    1.000
    Si2759   Si       0.45191    0.87576    0.80690    1.000
    Si2760   Si       0.44614    0.83689    0.87002    1.000
    N2761    N        0.42371    0.98597    0.79439    1.000
    N2762    N        0.44046    0.91490    0.79348    1.000
    Si2763   Si       0.43255    0.94815    0.81933    1.000
    Si2764   Si       0.44842    0.92539    0.75222    1.000
    Si2765   Si       0.40189    0.89298    0.86643    1.000
    N2766    N        0.43614    0.84796    0.91086    1.000
    Si2767   Si       0.42208    0.82280    0.94556    1.000
    N2768    N        0.45851    0.80277    0.95716    1.000
    Si2769   Si       0.42466    0.75818    0.95300    1.000
    Si2770   Si       0.40384    0.88536    0.98405    1.000
    Si2771   Si       0.43891    0.00552    0.99672    1.000
    Si2772   Si       0.40532    0.95178    0.88684    1.000
    N2773    N        0.44642    0.88930    0.96684    1.000
    N2774    N        0.42847    0.98696    0.89018    1.000
    N2775    N        0.41769    0.91287    0.90253    1.000
    Si2776   Si       0.45033    0.88911    0.92333    1.000
    N2777    N        0.44585    0.01273    0.95389    1.000
    Si2778   Si       0.49744    0.07702    0.03095    1.000
    Si2779   Si       0.47942    0.01809    0.07552    1.000
    N2780    N        0.50580    0.03735    0.04582    1.000
    N2781    N        0.50385    0.10875    0.06230    1.000
    N2782    N        0.49635    0.02005    0.11470    1.000
    Si2783   Si       0.47711    0.14287    0.06650    1.000
    N2784    N        0.49155    0.18206    0.07382    1.000
    Si2785   Si       0.46834    0.21367    0.09174    1.000
    N2786    N        0.50518    0.22116    0.11673    1.000
    Si2787   Si       0.51343    0.23767    0.99804    1.000
    N2788    N        0.47972    0.21056    0.99849    1.000
    N2789    N        0.51501    0.25134    0.03978    1.000
    Si2790   Si       0.48100    0.16660    0.99778    1.000
    Si2791   Si       0.50576    0.01324    0.15540    1.000
    N2792    N        0.49692    0.01858    0.23379    1.000
    Si2793   Si       0.50090    0.05787    0.21451    1.000
    Si2794   Si       0.46712    0.11825    0.23779    1.000
    N2795    N        0.46278    0.07773    0.21958    1.000
    Si2796   Si       0.47146    0.18090    0.19581    1.000
    N2797    N        0.49565    0.21637    0.19192    1.000
    Si2798   Si       0.50968    0.20039    0.15380    1.000
    N2799    N        0.48024    0.16766    0.15367    1.000
    N2800    N        0.49132    0.14698    0.21646    1.000
    N2801    N        0.48713    0.11094    0.34483    1.000
    Si2802   Si       0.50700    0.03242    0.30060    1.000
    N2803    N        0.46479    0.04095    0.29371    1.000
    N2804    N        0.51195    0.02488    0.34476    1.000
    N2805    N        0.46043    0.10978    0.27894    1.000
    N2806    N        0.47308    0.17395    0.30432    1.000
    Si2807   Si       0.50265    0.23403    0.25873    1.000
    Si2808   Si       0.46138    0.13356    0.31527    1.000
    N2809    N        0.51063    0.25092    0.29899    1.000
    Si2810   Si       0.51494    0.17894    0.30177    1.000
    N2811    N        0.46058    0.22943    0.26611    1.000
    N2812    N        0.49948    0.06184    0.39961    1.000
    N2813    N        0.49511    0.07748    0.46878    1.000
    Si2814   Si       0.48486    0.04768    0.43813    1.000
    Si2815   Si       0.47699    0.09686    0.38614    1.000
    Si2816   Si       0.49913    0.11838    0.45602    1.000
    N2817    N        0.48501    0.12793    0.41624    1.000
    N2818    N        0.48465    0.00937    0.46002    1.000
    N2819    N        0.50950    0.19049    0.43854    1.000
    N2820    N        0.49429    0.25100    0.38453    1.000
    N2821    N        0.47423    0.18607    0.37387    1.000
    Si2822   Si       0.50034    0.16673    0.40217    1.000
    N2823    N        0.48499    0.14458    0.48627    1.000
    Si2824   Si       0.47574    0.18260    0.46729    1.000
    Si2825   Si       0.47043    0.25677    0.48815    1.000
    N2826    N        0.48087    0.09301    0.54134    1.000
    N2827    N        0.46969    0.03401    0.58338    1.000
    Si2828   Si       0.48224    0.01173    0.50445    1.000
    Si2829   Si       0.46176    0.12176    0.51552    1.000
    N2830    N        0.51623    0.03422    0.51947    1.000
    Si2831   Si       0.49186    0.22460    0.58920    1.000
    Si2832   Si       0.47160    0.19240    0.53662    1.000
    N2833    N        0.50846    0.19303    0.56280    1.000
    N2834    N        0.47444    0.21276    0.49890    1.000
    Si2835   Si       0.49099    0.10104    0.66247    1.000
    N2836    N        0.47550    0.06316    0.66904    1.000
    N2837    N        0.50757    0.12460    0.69634    1.000
    N2838    N        0.51110    0.06984    0.74016    1.000
    Si2839   Si       0.48595    0.22353    0.65426    1.000
    N2840    N        0.48973    0.18672    0.67507    1.000
    N2841    N        0.49122    0.23920    0.75243    1.000
    Si2842   Si       0.48563    0.07659    0.77378    1.000
    Si2843   Si       0.50278    0.05164    0.84066    1.000
    N2844    N        0.47296    0.11826    0.78041    1.000
    N2845    N        0.47063    0.02263    0.83503    1.000
    Si2846   Si       0.48908    0.14909    0.80594    1.000
    N2847    N        0.48682    0.18688    0.78907    1.000
    N2848    N        0.46280    0.14836    0.84136    1.000
    Si2849   Si       0.51607    0.21978    0.78319    1.000
    N2850    N        0.48508    0.08057    0.86890    1.000
    Si2851   Si       0.47500    0.12160    0.87344    1.000
    N2852    N        0.47863    0.08073    0.93854    1.000
    N2853    N        0.48687    0.01458    0.90385    1.000
    Si2854   Si       0.46848    0.05771    0.90292    1.000
    N2855    N        0.45878    0.19413    0.89255    1.000
    Si2856   Si       0.50871    0.25003    0.92797    1.000
    N2857    N        0.51370    0.20508    0.93851    1.000
    N2858    N        0.50278    0.14317    0.89993    1.000
    N2859    N        0.47083    0.15600    0.95661    1.000
    Si2860   Si       0.48523    0.17781    0.92150    1.000
    Si2861   Si       0.48484    0.27617    0.05814    1.000
    N2862    N        0.49273    0.28946    0.09979    1.000
    N2863    N        0.47027    0.30494    0.02714    1.000
    N2864    N        0.47428    0.40383    0.09065    1.000
    Si2865   Si       0.49026    0.48627    0.04701    1.000
    Si2866   Si       0.46797    0.42939    0.01371    1.000
    N2867    N        0.50634    0.41920    0.03242    1.000
    Si2868   Si       0.50887    0.42422    0.07507    1.000
    Si2869   Si       0.48820    0.49213    0.11115    1.000
    N2870    N        0.50495    0.50270    0.01096    1.000
    N2871    N        0.51525    0.46789    0.08134    1.000
    N2872    N        0.49552    0.35496    0.13348    1.000
    Si2873   Si       0.47759    0.31362    0.13407    1.000
    N2874    N        0.49451    0.28177    0.16105    1.000
    N2875    N        0.46038    0.33174    0.20641    1.000
    Si2876   Si       0.48094    0.33578    0.24350    1.000
    Si2877   Si       0.51435    0.25500    0.18964    1.000
    N2878    N        0.48912    0.47694    0.20008    1.000
    Si2879   Si       0.46621    0.45403    0.17108    1.000
    N2880    N        0.49259    0.42016    0.15832    1.000
    Si2881   Si       0.47811    0.47518    0.24163    1.000
    Si2882   Si       0.47361    0.39245    0.13298    1.000
    N2883    N        0.48453    0.30733    0.33885    1.000
    Si2884   Si       0.49932    0.29295    0.30056    1.000
    N2885    N        0.47008    0.30123    0.26874    1.000
    N2886    N        0.47523    0.37374    0.26325    1.000
    Si2887   Si       0.51014    0.28858    0.36718    1.000
    Si2888   Si       0.50082    0.46549    0.35005    1.000
    N2889    N        0.48527    0.43742    0.26425    1.000
    N2890    N        0.47265    0.49282    0.32869    1.000
    Si2891   Si       0.51109    0.40210    0.25874    1.000
    N2892    N        0.47821    0.43220    0.36442    1.000
    N2893    N        0.50183    0.50665    0.26004    1.000
    N2894    N        0.47553    0.35890    0.38474    1.000
    Si2895   Si       0.47927    0.32887    0.41601    1.000
    N2896    N        0.48051    0.35081    0.45411    1.000
    N2897    N        0.50104    0.26767    0.46217    1.000
    Si2898   Si       0.51531    0.26185    0.42064    1.000
    N2899    N        0.51720    0.30536    0.40865    1.000
    Si2900   Si       0.50957    0.38151    0.45165    1.000
    N2901    N        0.45650    0.44952    0.47897    1.000
    Si2902   Si       0.46538    0.44374    0.43526    1.000
    N2903    N        0.48312    0.48309    0.42747    1.000
    N2904    N        0.49228    0.41281    0.42591    1.000
    Si2905   Si       0.49549    0.39824    0.38390    1.000
    N2906    N        0.49782    0.32643    0.57163    1.000
    Si2907   Si       0.48380    0.36827    0.57375    1.000
    Si2908   Si       0.49000    0.29681    0.59931    1.000
    Si2909   Si       0.49355    0.31251    0.53166    1.000
    N2910    N        0.48599    0.35382    0.51754    1.000
    N2911    N        0.50725    0.26408    0.57754    1.000
    N2912    N        0.48927    0.38051    0.61618    1.000
    N2913    N        0.46099    0.28886    0.51653    1.000
    N2914    N        0.47289    0.47868    0.53969    1.000
    N2915    N        0.51386    0.39667    0.56059    1.000
    N2916    N        0.51339    0.44931    0.60274    1.000
    Si2917   Si       0.47913    0.48227    0.49808    1.000
    Si2918   Si       0.47968    0.42292    0.61653    1.000
    N2919    N        0.50575    0.30859    0.71176    1.000
    N2920    N        0.49902    0.31170    0.63891    1.000
    Si2921   Si       0.48625    0.35263    0.64891    1.000
    Si2922   Si       0.50247    0.35131    0.71739    1.000
    Si2923   Si       0.51157    0.28959    0.67338    1.000
    Si2924   Si       0.48806    0.28153    0.74205    1.000
    N2925    N        0.46441    0.37287    0.72905    1.000
    N2926    N        0.51704    0.36289    0.67810    1.000
    N2927    N        0.48212    0.25683    0.67819    1.000
    N2928    N        0.47558    0.43183    0.65864    1.000
    N2929    N        0.51286    0.47347    0.74190    1.000
    Si2930   Si       0.47528    0.48318    0.72520    1.000
    N2931    N        0.47392    0.50127    0.68270    1.000
    N2932    N        0.49566    0.30545    0.77825    1.000
    Si2933   Si       0.48141    0.27411    0.80772    1.000
    N2934    N        0.47431    0.29750    0.84248    1.000
    N2935    N        0.46700    0.37123    0.83146    1.000
    Si2936   Si       0.50497    0.38965    0.81676    1.000
    Si2937   Si       0.48419    0.45541    0.84488    1.000
    N2938    N        0.48075    0.47194    0.80564    1.000
    N2939    N        0.49613    0.41079    0.77928    1.000
    Si2940   Si       0.51144    0.45265    0.77982    1.000
    N2941    N        0.51647    0.42447    0.84158    1.000
    Si2942   Si       0.46140    0.40975    0.75014    1.000
    N2943    N        0.48940    0.48984    0.87078    1.000
    N2944    N        0.50347    0.26671    0.96892    1.000
    Si2945   Si       0.50164    0.34866    0.92977    1.000
    N2946    N        0.50382    0.32908    0.89141    1.000
    Si2947   Si       0.46973    0.30019    0.88663    1.000
    Si2948   Si       0.47304    0.29742    0.98218    1.000
    N2949    N        0.47309    0.32563    0.95205    1.000
    N2950    N        0.47160    0.26322    0.90798    1.000
    Si2951   Si       0.51193    0.42347    0.94727    1.000
    N2952    N        0.47526    0.43201    0.97123    1.000
    Si2953   Si       0.50761    0.49421    0.91234    1.000
    N2954    N        0.48966    0.39071    0.92839    1.000
    Si2955   Si       0.48791    0.55648    0.07283    1.000
    N2956    N        0.50674    0.56334    0.11060    1.000
    N2957    N        0.47647    0.51537    0.07501    1.000
    Si2958   Si       0.49761    0.60552    0.11709    1.000
    N2959    N        0.46214    0.54977    0.99777    1.000
    N2960    N        0.51763    0.56629    0.04285    1.000
    N2961    N        0.46244    0.62867    0.10835    1.000
    Si2962   Si       0.48256    0.69549    0.02574    1.000
    N2963    N        0.49048    0.66638    0.05918    1.000
    N2964    N        0.48198    0.73578    0.04276    1.000
    N2965    N        0.47841    0.75093    0.11102    1.000
    N2966    N        0.51922    0.69264    0.00097    1.000
    N2967    N        0.49978    0.60182    0.21633    1.000
    Si2968   Si       0.49770    0.58536    0.17740    1.000
    Si2969   Si       0.46385    0.62451    0.22549    1.000
    N2970    N        0.51560    0.61867    0.15414    1.000
    Si2971   Si       0.49017    0.73325    0.21120    1.000
    N2972    N        0.46206    0.72240    0.17823    1.000
    N2973    N        0.45481    0.64559    0.18864    1.000
    N2974    N        0.48734    0.59798    0.28898    1.000
    Si2975   Si       0.48737    0.51864    0.29716    1.000
    N2976    N        0.49297    0.61240    0.36339    1.000
    N2977    N        0.51460    0.54367    0.32312    1.000
    Si2978   Si       0.50161    0.64022    0.28124    1.000
    N2979    N        0.49488    0.73008    0.32001    1.000
    Si2980   Si       0.47931    0.74573    0.35796    1.000
    N2981    N        0.47008    0.65439    0.25545    1.000
    Si2982   Si       0.48177    0.74388    0.28055    1.000
    N2983    N        0.51166    0.66225    0.31674    1.000
    N2984    N        0.46857    0.72096    0.24681    1.000
    N2985    N        0.50536    0.61872    0.42725    1.000
    Si2986   Si       0.50064    0.58604    0.39629    1.000
    N2987    N        0.47538    0.52265    0.48089    1.000
    Si2988   Si       0.48909    0.52451    0.43982    1.000
    N2989    N        0.47235    0.55537    0.41294    1.000
    N2990    N        0.49291    0.59310    0.49079    1.000
    Si2991   Si       0.50278    0.74800    0.49053    1.000
    N2992    N        0.50814    0.68519    0.44137    1.000
    N2993    N        0.46236    0.73238    0.48928    1.000
    Si2994   Si       0.50321    0.65726    0.40874    1.000
    N2995    N        0.49017    0.72675    0.39412    1.000
    Si2996   Si       0.50732    0.67576    0.48226    1.000
    N2997    N        0.46322    0.66500    0.39107    1.000
    N2998    N        0.47030    0.66512    0.49958    1.000
    N2999    N        0.48447    0.60470    0.59518    1.000
    Si3000   Si       0.48951    0.55437    0.50933    1.000
    Si3001   Si       0.50334    0.56538    0.60512    1.000
    N3002    N        0.49245    0.52300    0.59244    1.000
    Si3003   Si       0.46077    0.51641    0.56292    1.000
    Si3004   Si       0.50690    0.63878    0.61059    1.000
    Si3005   Si       0.50256    0.71397    0.58688    1.000
    N3006    N        0.48913    0.74879    0.60890    1.000
    N3007    N        0.47049    0.70787    0.55768    1.000
    N3008    N        0.48880    0.67736    0.61143    1.000
    Si3009   Si       0.50804    0.52274    0.66892    1.000
    Si3010   Si       0.47618    0.60126    0.72462    1.000
    N3011    N        0.49500    0.55757    0.64867    1.000
    N3012    N        0.49445    0.75555    0.73376    1.000
    N3013    N        0.51472    0.63468    0.65263    1.000
    Si3014   Si       0.47409    0.67618    0.72062    1.000
    N3015    N        0.49967    0.69655    0.69419    1.000
    N3016    N        0.49606    0.60194    0.83477    1.000
    Si3017   Si       0.48988    0.57484    0.80059    1.000
    Si3018   Si       0.48787    0.52784    0.85144    1.000
    N3019    N        0.46817    0.59444    0.76682    1.000
    N3020    N        0.46427    0.54175    0.81669    1.000
    N3021    N        0.49888    0.66986    0.75723    1.000
    Si3022   Si       0.49057    0.68175    0.80052    1.000
    N3023    N        0.48096    0.72607    0.79780    1.000
    Si3024   Si       0.46263    0.73904    0.76092    1.000
    Si3025   Si       0.49750    0.75933    0.81924    1.000
    N3026    N        0.51674    0.59109    0.89862    1.000
    Si3027   Si       0.47370    0.58953    0.89584    1.000
    N3028    N        0.47926    0.62149    0.98018    1.000
    N3029    N        0.46069    0.55137    0.87823    1.000
    Si3030   Si       0.47137    0.50915    0.98363    1.000
    N3031    N        0.47904    0.50957    0.94098    1.000
    N3032    N        0.50593    0.75536    0.97966    1.000
    N3033    N        0.47064    0.70086    0.86775    1.000
    N3034    N        0.47828    0.66949    0.93000    1.000
    N3035    N        0.48600    0.86260    0.03030    1.000
    Si3036   Si       0.47393    0.83185    0.05650    1.000
    Si3037   Si       0.49757    0.77000    0.02001    1.000
    N3038    N        0.50365    0.81215    0.07989    1.000
    Si3039   Si       0.51172    0.77684    0.10897    1.000
    N3040    N        0.46370    0.79852    0.02816    1.000
    N3041    N        0.47506    0.92912    0.01889    1.000
    N3042    N        0.48578    0.97608    0.06338    1.000
    N3043    N        0.51198    0.86985    0.12270    1.000
    Si3044   Si       0.47969    0.80286    0.17527    1.000
    Si3045   Si       0.47964    0.86399    0.22280    1.000
    N3046    N        0.48013    0.84618    0.18239    1.000
    N3047    N        0.49658    0.77620    0.20497    1.000
    Si3048   Si       0.51069    0.79563    0.23783    1.000
    N3049    N        0.51240    0.80203    0.14439    1.000
    Si3050   Si       0.48405    0.88109    0.15526    1.000
    Si3051   Si       0.47324    0.98212    0.22407    1.000
    N3052    N        0.47621    0.98740    0.17748    1.000
    N3053    N        0.52020    0.88231    0.23303    1.000
    N3054    N        0.49205    0.93526    0.12125    1.000
    N3055    N        0.51074    0.95690    0.23051    1.000
    N3056    N        0.49531    0.91338    0.18015    1.000
    Si3057   Si       0.49791    0.95272    0.16206    1.000
    N3058    N        0.49425    0.84294    0.33329    1.000
    Si3059   Si       0.46180    0.87251    0.32381    1.000
    N3060    N        0.51606    0.76148    0.26274    1.000
    N3061    N        0.48174    0.82697    0.24611    1.000
    Si3062   Si       0.48964    0.81749    0.36873    1.000
    N3063    N        0.46017    0.78529    0.36199    1.000
    N3064    N        0.47731    0.91314    0.31974    1.000
    Si3065   Si       0.49407    0.98683    0.35058    1.000
    Si3066   Si       0.50913    0.91704    0.34914    1.000
    N3067    N        0.45975    0.98222    0.32500    1.000
    Si3068   Si       0.48918    0.84724    0.44616    1.000
    N3069    N        0.47442    0.83677    0.40478    1.000
    Si3070   Si       0.48880    0.97470    0.43312    1.000
    N3071    N        0.49606    0.88954    0.45027    1.000
    N3072    N        0.49302    0.91465    0.38881    1.000
    N3073    N        0.47870    0.98464    0.39163    1.000
    Si3074   Si       0.50339    0.83356    0.57962    1.000
    N3075    N        0.47164    0.84038    0.55201    1.000
    N3076    N        0.50608    0.78911    0.51063    1.000
    Si3077   Si       0.47288    0.81519    0.51612    1.000
    Si3078   Si       0.51381    0.78352    0.61561    1.000
    N3079    N        0.49103    0.96707    0.60335    1.000
    N3080    N        0.47712    0.90758    0.56698    1.000
    N3081    N        0.48808    0.97042    0.51635    1.000
    Si3082   Si       0.45923    0.94269    0.58844    1.000
    Si3083   Si       0.48177    0.00832    0.61443    1.000
    N3084    N        0.48928    0.82346    0.62172    1.000
    Si3085   Si       0.49476    0.79809    0.72393    1.000
    Si3086   Si       0.50937    0.84293    0.65471    1.000
    N3087    N        0.51210    0.81166    0.68439    1.000
    N3088    N        0.48354    0.87436    0.66734    1.000
    Si3089   Si       0.49161    0.96586    0.71340    1.000
    N3090    N        0.46741    0.93939    0.68982    1.000
    N3091    N        0.48678    0.00961    0.71012    1.000
    N3092    N        0.48685    0.79703    0.80234    1.000
    N3093    N        0.49334    0.87198    0.79510    1.000
    N3094    N        0.48847    0.76474    0.86236    1.000
    N3095    N        0.49101    0.83216    0.87280    1.000
    Si3096   Si       0.50759    0.93885    0.85089    1.000
    N3097    N        0.46693    0.95582    0.84760    1.000
    N3098    N        0.48085    0.95573    0.75394    1.000
    Si3099   Si       0.51720    0.96435    0.77482    1.000
    Si3100   Si       0.46852    0.99319    0.87023    1.000
    Si3101   Si       0.48715    0.77356    0.94461    1.000
    Si3102   Si       0.51341    0.79485    0.87992    1.000
    Si3103   Si       0.51114    0.86791    0.88302    1.000
    N3104    N        0.52095    0.96003    0.88632    1.000
    Si3105   Si       0.50508    0.94345    0.99258    1.000
    N3106    N        0.50437    0.96016    0.95135    1.000
    Si3107   Si       0.48897    0.00267    0.95265    1.000
    N3108    N        0.49254    0.89608    0.91192    1.000
    Si3109   Si       0.51596    0.93282    0.92003    1.000
    N3110    N        0.48257    0.99676    0.99798    1.000
    Si3111   Si       0.54134    0.11335    0.08111    1.000
    N3112    N        0.54667    0.08139    0.11019    1.000
    N3113    N        0.56422    0.01621    0.02311    1.000
    N3114    N        0.56784    0.12008    0.04828    1.000
    Si3115   Si       0.54744    0.12412    0.00852    1.000
    Si3116   Si       0.52120    0.01319    0.01290    1.000
    N3117    N        0.52069    0.08942    0.99741    1.000
    N3118    N        0.54311    0.14980    0.10412    1.000
    N3119    N        0.56328    0.20776    0.07602    1.000
    Si3120   Si       0.52904    0.18899    0.09106    1.000
    Si3121   Si       0.55188    0.24725    0.06100    1.000
    N3122    N        0.52372    0.15856    0.99787    1.000
    Si3123   Si       0.54482    0.07737    0.15492    1.000
    N3124    N        0.53913    0.11790    0.16812    1.000
    N3125    N        0.52731    0.09026    0.22912    1.000
    Si3126   Si       0.53178    0.13010    0.20828    1.000
    N3127    N        0.51799    0.04952    0.17487    1.000
    Si3128   Si       0.56143    0.14805    0.14486    1.000
    N3129    N        0.56613    0.15416    0.21801    1.000
    Si3130   Si       0.56248    0.19267    0.24049    1.000
    N3131    N        0.54729    0.25104    0.16122    1.000
    Si3132   Si       0.57675    0.22001    0.16906    1.000
    N3133    N        0.55090    0.18727    0.15799    1.000
    N3134    N        0.54971    0.08592    0.35421    1.000
    Si3135   Si       0.55431    0.08382    0.26076    1.000
    N3136    N        0.52831    0.07085    0.29134    1.000
    Si3137   Si       0.52445    0.10142    0.32344    1.000
    N3138    N        0.53198    0.13849    0.30288    1.000
    Si3139   Si       0.54466    0.24143    0.32552    1.000
    Si3140   Si       0.56547    0.17769    0.36017    1.000
    N3141    N        0.54035    0.19799    0.33083    1.000
    N3142    N        0.52479    0.19686    0.26124    1.000
    Si3143   Si       0.53178    0.05055    0.37286    1.000
    N3144    N        0.55355    0.04101    0.46386    1.000
    N3145    N        0.56905    0.04674    0.39598    1.000
    N3146    N        0.54142    0.12580    0.45765    1.000
    Si3147   Si       0.53058    0.06418    0.49188    1.000
    Si3148   Si       0.56157    0.12871    0.49578    1.000
    Si3149   Si       0.54836    0.20805    0.44690    1.000
    N3150    N        0.54183    0.15980    0.39218    1.000
    Si3151   Si       0.56437    0.14299    0.42511    1.000
    N3152    N        0.55374    0.23329    0.48345    1.000
    N3153    N        0.55405    0.24334    0.41912    1.000
    N3154    N        0.54547    0.09472    0.51815    1.000
    N3155    N        0.53852    0.05720    0.57659    1.000
    Si3156   Si       0.54535    0.02480    0.55083    1.000
    Si3157   Si       0.52296    0.09291    0.55568    1.000
    N3158    N        0.52969    0.12927    0.57708    1.000
    Si3159   Si       0.54914    0.12638    0.61606    1.000
    Si3160   Si       0.53955    0.05605    0.61956    1.000
    N3161    N        0.56467    0.23537    0.54852    1.000
    Si3162   Si       0.54109    0.16569    0.55912    1.000
    N3163    N        0.55618    0.16814    0.51719    1.000
    Si3164   Si       0.57226    0.20872    0.51336    1.000
    Si3165   Si       0.52205    0.02882    0.72998    1.000
    N3166    N        0.52543    0.09453    0.63529    1.000
    N3167    N        0.54918    0.03175    0.69558    1.000
    Si3168   Si       0.53148    0.10260    0.72452    1.000
    N3169    N        0.57063    0.09693    0.70564    1.000
    N3170    N        0.51930    0.01945    0.63393    1.000
    N3171    N        0.55463    0.17244    0.71022    1.000
    Si3172   Si       0.56036    0.24140    0.64389    1.000
    N3173    N        0.52217    0.22458    0.62941    1.000
    Si3174   Si       0.52442    0.16113    0.68270    1.000
    N3175    N        0.55190    0.15473    0.64918    1.000
    Si3176   Si       0.54683    0.10681    0.79756    1.000
    N3177    N        0.53443    0.02856    0.85737    1.000
    N3178    N        0.54164    0.12712    0.75979    1.000
    Si3179   Si       0.57702    0.03206    0.87154    1.000
    N3180    N        0.51648    0.07559    0.80607    1.000
    N3181    N        0.53158    0.13990    0.82224    1.000
    Si3182   Si       0.55963    0.16128    0.84793    1.000
    N3183    N        0.55765    0.19906    0.77634    1.000
    Si3184   Si       0.56323    0.16464    0.75068    1.000
    N3185    N        0.54309    0.19250    0.86939    1.000
    N3186    N        0.51967    0.25274    0.80965    1.000
    N3187    N        0.56582    0.01698    0.91092    1.000
    N3188    N        0.54628    0.09526    0.93343    1.000
    N3189    N        0.52564    0.02978    0.96262    1.000
    Si3190   Si       0.57211    0.02571    0.95313    1.000
    Si3191   Si       0.54174    0.13199    0.91071    1.000
    N3192    N        0.56785    0.12870    0.87566    1.000
    Si3193   Si       0.51838    0.07365    0.95859    1.000
    Si3194   Si       0.54097    0.18519    0.96803    1.000
    N3195    N        0.54936    0.24764    0.90742    1.000
    N3196    N        0.55369    0.22061    0.98725    1.000
    N3197    N        0.56178    0.16550    0.93571    1.000
    Si3198   Si       0.55665    0.20446    0.90722    1.000
    N3199    N        0.55568    0.36747    0.01952    1.000
    N3200    N        0.55188    0.26930    0.09728    1.000
    N3201    N        0.55831    0.33527    0.12382    1.000
    N3202    N        0.54367    0.40063    0.08906    1.000
    Si3203   Si       0.54469    0.40976    0.01411    1.000
    Si3204   Si       0.54904    0.48739    0.10111    1.000
    N3205    N        0.57437    0.43284    0.03482    1.000
    Si3206   Si       0.53752    0.37220    0.12384    1.000
    Si3207   Si       0.56560    0.37016    0.21811    1.000
    N3208    N        0.52425    0.33714    0.24011    1.000
    Si3209   Si       0.54140    0.29605    0.24577    1.000
    Si3210   Si       0.52057    0.26347    0.12544    1.000
    N3211    N        0.51642    0.26403    0.23228    1.000
    N3212    N        0.53247    0.40117    0.22115    1.000
    Si3213   Si       0.53110    0.42109    0.18195    1.000
    N3214    N        0.52417    0.49980    0.13745    1.000
    Si3215   Si       0.52331    0.49697    0.18333    1.000
    N3216    N        0.55534    0.39534    0.15517    1.000
    N3217    N        0.55092    0.45864    0.18169    1.000
    N3218    N        0.54165    0.30698    0.29149    1.000
    Si3219   Si       0.54725    0.34706    0.27614    1.000
    N3220    N        0.54839    0.27757    0.35341    1.000
    N3221    N        0.53598    0.38482    0.29221    1.000
    Si3222   Si       0.55044    0.40708    0.32829    1.000
    N3223    N        0.53837    0.44962    0.32707    1.000
    Si3224   Si       0.56895    0.48022    0.31942    1.000
    N3225    N        0.56814    0.49754    0.27914    1.000
    N3226    N        0.53460    0.39270    0.36694    1.000
    N3227    N        0.54575    0.36694    0.43120    1.000
    Si3228   Si       0.53918    0.27358    0.48389    1.000
    Si3229   Si       0.55210    0.32326    0.42505    1.000
    N3230    N        0.56554    0.30084    0.45910    1.000
    Si3231   Si       0.56477    0.37617    0.39397    1.000
    N3232    N        0.57346    0.33449    0.38701    1.000
    N3233    N        0.51998    0.40410    0.48585    1.000
    N3234    N        0.52494    0.49230    0.37732    1.000
    N3235    N        0.55507    0.45029    0.43471    1.000
    Si3236   Si       0.52752    0.48110    0.41871    1.000
    Si3237   Si       0.54362    0.43865    0.47739    1.000
    N3238    N        0.52265    0.47364    0.49132    1.000
    Si3239   Si       0.54420    0.27298    0.55678    1.000
    N3240    N        0.53036    0.29374    0.52118    1.000
    N3241    N        0.56602    0.36851    0.52897    1.000
    N3242    N        0.56804    0.30306    0.57808    1.000
    Si3243   Si       0.52299    0.37856    0.52199    1.000
    Si3244   Si       0.54090    0.41671    0.59123    1.000
    N3245    N        0.55461    0.49922    0.57412    1.000
    N3246    N        0.57629    0.43069    0.56891    1.000
    Si3247   Si       0.52241    0.49139    0.60104    1.000
    Si3248   Si       0.55636    0.36938    0.65955    1.000
    N3249    N        0.55147    0.27426    0.67021    1.000
    Si3250   Si       0.57238    0.35959    0.72700    1.000
    N3251    N        0.56133    0.39971    0.62796    1.000
    N3252    N        0.56557    0.46293    0.69373    1.000
    N3253    N        0.57472    0.38653    0.69526    1.000
    Si3254   Si       0.54935    0.49130    0.72283    1.000
    Si3255   Si       0.57367    0.48976    0.65873    1.000
    N3256    N        0.53532    0.50119    0.64231    1.000
    Si3257   Si       0.55503    0.27776    0.81644    1.000
    N3258    N        0.56386    0.30824    0.78743    1.000
    N3259    N        0.55611    0.29737    0.85837    1.000
    Si3260   Si       0.53436    0.33471    0.86025    1.000
    Si3261   Si       0.52776    0.33277    0.78351    1.000
    N3262    N        0.52916    0.35324    0.82175    1.000
    N3263    N        0.53456    0.35627    0.74805    1.000
    N3264    N        0.55249    0.45418    0.79510    1.000
    Si3265   Si       0.55499    0.43866    0.83609    1.000
    N3266    N        0.56148    0.47237    0.86342    1.000
    N3267    N        0.53920    0.34367    0.94801    1.000
    N3268    N        0.56681    0.35963    0.88205    1.000
    Si3269   Si       0.56509    0.34774    0.98374    1.000
    Si3270   Si       0.57399    0.34269    0.92196    1.000
    N3271    N        0.52508    0.45500    0.91958    1.000
    Si3272   Si       0.56732    0.45759    0.90425    1.000
    N3273    N        0.54667    0.41352    0.97164    1.000
    Si3274   Si       0.54288    0.59940    0.05385    1.000
    N3275    N        0.56140    0.52747    0.09517    1.000
    N3276    N        0.53853    0.62308    0.01684    1.000
    N3277    N        0.53265    0.62305    0.09139    1.000
    N3278    N        0.56538    0.53775    0.00628    1.000
    Si3279   Si       0.52326    0.54389    0.00528    1.000
    N3280    N        0.56399    0.67394    0.05675    1.000
    Si3281   Si       0.54921    0.66492    0.01683    1.000
    Si3282   Si       0.52846    0.66549    0.08095    1.000
    N3283    N        0.54733    0.75172    0.10482    1.000
    N3284    N        0.57261    0.73486    0.99991    1.000
    N3285    N        0.55365    0.51284    0.21100    1.000
    N3286    N        0.52594    0.55195    0.17305    1.000
    Si3287   Si       0.54160    0.54373    0.13244    1.000
    Si3288   Si       0.53814    0.59882    0.23559    1.000
    N3289    N        0.56927    0.59648    0.20574    1.000
    Si3290   Si       0.56980    0.55360    0.19373    1.000
    Si3291   Si       0.56344    0.71571    0.12407    1.000
    Si3292   Si       0.56826    0.70673    0.20271    1.000
    Si3293   Si       0.54668    0.63863    0.13472    1.000
    N3294    N        0.53897    0.67959    0.12062    1.000
    N3295    N        0.52624    0.71085    0.20972    1.000
    N3296    N        0.55032    0.60567    0.32245    1.000
    Si3297   Si       0.53927    0.53042    0.35797    1.000
    N3298    N        0.54342    0.56369    0.26336    1.000
    Si3299   Si       0.52457    0.57852    0.30034    1.000
    Si3300   Si       0.54187    0.52029    0.25233    1.000
    N3301    N        0.54065    0.63164    0.26435    1.000
    Si3302   Si       0.52623    0.63517    0.34595    1.000
    N3303    N        0.54617    0.70148    0.27464    1.000
    Si3304   Si       0.52865    0.70144    0.31559    1.000
    N3305    N        0.56341    0.71222    0.33896    1.000
    Si3306   Si       0.56770    0.66620    0.26242    1.000
    Si3307   Si       0.55284    0.73958    0.25548    1.000
    N3308    N        0.53570    0.56032    0.38993    1.000
    N3309    N        0.55619    0.58364    0.45209    1.000
    Si3310   Si       0.55748    0.54991    0.42485    1.000
    N3311    N        0.53293    0.51934    0.44386    1.000
    Si3312   Si       0.52404    0.60954    0.46410    1.000
    Si3313   Si       0.54216    0.51072    0.48720    1.000
    N3314    N        0.53520    0.66059    0.37806    1.000
    Si3315   Si       0.56944    0.68912    0.37610    1.000
    Si3316   Si       0.52134    0.72125    0.42171    1.000
    N3317    N        0.56290    0.71930    0.40788    1.000
    N3318    N        0.53791    0.64438    0.48329    1.000
    Si3319   Si       0.55221    0.53898    0.55485    1.000
    N3320    N        0.53921    0.57107    0.58217    1.000
    Si3321   Si       0.56368    0.60592    0.57824    1.000
    N3322    N        0.52670    0.53669    0.51945    1.000
    N3323    N        0.57325    0.61568    0.53623    1.000
    N3324    N        0.54771    0.64105    0.59544    1.000
    Si3325   Si       0.55397    0.71263    0.53262    1.000
    N3326    N        0.54120    0.70487    0.57292    1.000
    Si3327   Si       0.55982    0.68157    0.60295    1.000
    N3328    N        0.52168    0.70965    0.50470    1.000
    Si3329   Si       0.57564    0.64694    0.50336    1.000
    N3330    N        0.56487    0.75378    0.52649    1.000
    N3331    N        0.53505    0.52696    0.70293    1.000
    Si3332   Si       0.53854    0.61648    0.68501    1.000
    N3333    N        0.57034    0.58956    0.67159    1.000
    Si3334   Si       0.57081    0.55413    0.69774    1.000
    N3335    N        0.52003    0.59924    0.71911    1.000
    Si3336   Si       0.52183    0.72697    0.71758    1.000
    N3337    N        0.54858    0.74534    0.68944    1.000
    N3338    N        0.55883    0.65481    0.69325    1.000
    N3339    N        0.55185    0.69919    0.64324    1.000
    Si3340   Si       0.52828    0.67510    0.66927    1.000
    Si3341   Si       0.55611    0.56696    0.81969    1.000
    N3342    N        0.56592    0.60307    0.84150    1.000
    N3343    N        0.53082    0.53959    0.84334    1.000
    N3344    N        0.52928    0.57239    0.78442    1.000
    Si3345   Si       0.53039    0.61315    0.86459    1.000
    Si3346   Si       0.54977    0.59533    0.75246    1.000
    Si3347   Si       0.55500    0.51510    0.86790    1.000
    N3348    N        0.56326    0.63504    0.76349    1.000
    Si3349   Si       0.55252    0.67917    0.84984    1.000
    N3350    N        0.53445    0.67874    0.80959    1.000
    Si3351   Si       0.54160    0.67360    0.76671    1.000
    Si3352   Si       0.56695    0.75199    0.84339    1.000
    N3353    N        0.55983    0.71720    0.86737    1.000
    N3354    N        0.55397    0.70997    0.74283    1.000
    N3355    N        0.53806    0.52458    0.90782    1.000
    Si3356   Si       0.53983    0.56571    0.92655    1.000
    N3357    N        0.52511    0.57029    0.96785    1.000
    Si3358   Si       0.52166    0.61255    0.97865    1.000
    Si3359   Si       0.57092    0.71065    0.91099    1.000
    N3360    N        0.53429    0.65390    0.87951    1.000
    Si3361   Si       0.53662    0.72373    0.97737    1.000
    Si3362   Si       0.51987    0.66686    0.92217    1.000
    N3363    N        0.53678    0.70540    0.93650    1.000
    N3364    N        0.54105    0.63558    0.94729    1.000
    N3365    N        0.55320    0.85368    0.03607    1.000
    Si3366   Si       0.54012    0.82005    0.05836    1.000
    N3367    N        0.53668    0.78483    0.03264    1.000
    N3368    N        0.56189    0.81621    0.09555    1.000
    Si3369   Si       0.57645    0.77295    0.02195    1.000
    Si3370   Si       0.52295    0.88598    0.03071    1.000
    N3371    N        0.55812    0.97676    0.08490    1.000
    N3372    N        0.53576    0.96335    0.01698    1.000
    N3373    N        0.52512    0.91335    0.06407    1.000
    Si3374   Si       0.52431    0.90889    0.10878    1.000
    Si3375   Si       0.52593    0.95702    0.06138    1.000
    Si3376   Si       0.53805    0.83419    0.12736    1.000
    N3377    N        0.56815    0.85053    0.15277    1.000
    N3378    N        0.53253    0.97734    0.16038    1.000
    N3379    N        0.56330    0.91822    0.12508    1.000
    Si3380   Si       0.52293    0.92048    0.21452    1.000
    Si3381   Si       0.53187    0.99424    0.24235    1.000
    Si3382   Si       0.56835    0.96763    0.18257    1.000
    N3383    N        0.56766    0.99434    0.21844    1.000
    N3384    N        0.56470    0.92645    0.20010    1.000
    N3385    N        0.55717    0.81556    0.32372    1.000
    Si3386   Si       0.53365    0.85409    0.31832    1.000
    N3387    N        0.56306    0.87019    0.28832    1.000
    Si3388   Si       0.56550    0.80289    0.36432    1.000
    N3389    N        0.54929    0.81517    0.25103    1.000
    Si3390   Si       0.57370    0.80433    0.28578    1.000
    Si3391   Si       0.55552    0.85973    0.24584    1.000
    N3392    N        0.54278    0.88930    0.34411    1.000
    Si3393   Si       0.55427    0.97438    0.31445    1.000
    N3394    N        0.53379    0.00032    0.28441    1.000
    N3395    N        0.52529    0.95725    0.33954    1.000
    Si3396   Si       0.57566    0.90321    0.31492    1.000
    N3397    N        0.57671    0.94174    0.29445    1.000
    Si3398   Si       0.57262    0.87766    0.37528    1.000
    Si3399   Si       0.53831    0.79021    0.42932    1.000
    N3400    N        0.52623    0.79547    0.38380    1.000
    N3401    N        0.52633    0.82526    0.44773    1.000
    N3402    N        0.51931    0.75455    0.45087    1.000
    Si3403   Si       0.56571    0.95990    0.45599    1.000
    Si3404   Si       0.52184    0.91138    0.42395    1.000
    N3405    N        0.56170    0.89839    0.41070    1.000
    N3406    N        0.52484    0.95202    0.43907    1.000
    N3407    N        0.55700    0.97622    0.49663    1.000
    Si3408   Si       0.54331    0.79250    0.53526    1.000
    N3409    N        0.53114    0.86336    0.57543    1.000
    N3410    N        0.52216    0.79494    0.57530    1.000
    Si3411   Si       0.55747    0.88294    0.60851    1.000
    N3412    N        0.54318    0.91972    0.52925    1.000
    Si3413   Si       0.53308    0.96403    0.60181    1.000
    N3414    N        0.54060    0.98383    0.56289    1.000
    N3415    N        0.53825    0.92091    0.59876    1.000
    Si3416   Si       0.52916    0.96078    0.52628    1.000
    Si3417   Si       0.51936    0.90402    0.56192    1.000
    N3418    N        0.55332    0.78624    0.63392    1.000
    Si3419   Si       0.54845    0.78589    0.67937    1.000
    N3420    N        0.54618    0.86252    0.64596    1.000
    Si3421   Si       0.56723    0.81873    0.73866    1.000
    N3422    N        0.53177    0.96713    0.69314    1.000
    Si3423   Si       0.57087    0.88606    0.67126    1.000
    Si3424   Si       0.56319    0.94859    0.71678    1.000
    N3425    N        0.55604    0.90748    0.70408    1.000
    N3426    N        0.56051    0.97298    0.63427    1.000
    Si3427   Si       0.53988    0.99904    0.66510    1.000
    N3428    N        0.55033    0.83831    0.82118    1.000
    Si3429   Si       0.56908    0.82869    0.86083    1.000
    Si3430   Si       0.53236    0.80647    0.79563    1.000
    N3431    N        0.52911    0.80597    0.75188    1.000
    N3432    N        0.54029    0.76427    0.81123    1.000
    Si3433   Si       0.52939    0.87719    0.81471    1.000
    N3434    N        0.57433    0.85969    0.75007    1.000
    N3435    N        0.54515    0.93916    0.75409    1.000
    N3436    N        0.52878    0.95401    0.81524    1.000
    N3437    N        0.56686    0.89690    0.79857    1.000
    N3438    N        0.53062    0.00473    0.76445    1.000
    Si3439   Si       0.56935    0.93683    0.81853    1.000
    Si3440   Si       0.57347    0.99942    0.77050    1.000
    N3441    N        0.52157    0.89805    0.85242    1.000
    Si3442   Si       0.56731    0.90203    0.75216    1.000
    N3443    N        0.55759    0.78747    0.87020    1.000
    N3444    N        0.54953    0.84926    0.89399    1.000
    Si3445   Si       0.56412    0.78136    0.91479    1.000
    N3446    N        0.52160    0.78411    0.92056    1.000
    Si3447   Si       0.52871    0.00229    0.89271    1.000
    Si3448   Si       0.56333    0.90356    0.97250    1.000
    N3449    N        0.52513    0.90215    0.99036    1.000
    N3450    N        0.55586    0.91401    0.92729    1.000
    N3451    N        0.60109    0.03208    0.08328    1.000
    N3452    N        0.61549    0.09159    0.09472    1.000
    Si3453   Si       0.60677    0.11499    0.02871    1.000
    N3454    N        0.62233    0.07386    0.02764    1.000
    Si3455   Si       0.58601    0.06333    0.11018    1.000
    Si3456   Si       0.62939    0.06009    0.06650    1.000
    Si3457   Si       0.60885    0.21343    0.06596    1.000
    N3458    N        0.61204    0.20396    0.02448    1.000
    N3459    N        0.63126    0.24897    0.08458    1.000
    Si3460   Si       0.59223    0.23505    0.00171    1.000
    N3461    N        0.63134    0.18125    0.08627    1.000
    N3462    N        0.58347    0.26040    0.03497    1.000
    N3463    N        0.63281    0.03599    0.20299    1.000
    N3464    N        0.58704    0.06588    0.15499    1.000
    N3465    N        0.61796    0.10115    0.21478    1.000
    Si3466   Si       0.60093    0.01918    0.22983    1.000
    Si3467   Si       0.62038    0.07297    0.18240    1.000
    Si3468   Si       0.63609    0.11638    0.12264    1.000
    N3469    N        0.58268    0.21959    0.21350    1.000
    Si3470   Si       0.62600    0.18313    0.12998    1.000
    Si3471   Si       0.60500    0.25022    0.23076    1.000
    N3472    N        0.60445    0.14604    0.13659    1.000
    N3473    N        0.61211    0.22172    0.14481    1.000
    Si3474   Si       0.60529    0.14088    0.23207    1.000
    N3475    N        0.62051    0.08623    0.35696    1.000
    N3476    N        0.58804    0.11522    0.26780    1.000
    Si3477   Si       0.61769    0.08367    0.25359    1.000
    N3478    N        0.58488    0.05436    0.25073    1.000
    Si3479   Si       0.62876    0.12858    0.34550    1.000
    Si3480   Si       0.61070    0.21575    0.29095    1.000
    N3481    N        0.58952    0.18131    0.27528    1.000
    N3482    N        0.58954    0.14805    0.33752    1.000
    N3483    N        0.58168    0.24516    0.30324    1.000
    N3484    N        0.62895    0.23818    0.26235    1.000
    Si3485   Si       0.57448    0.14453    0.29790    1.000
    Si3486   Si       0.63328    0.19854    0.36229    1.000
    N3487    N        0.59064    0.11034    0.41447    1.000
    Si3488   Si       0.61611    0.09933    0.44560    1.000
    N3489    N        0.61471    0.05574    0.45000    1.000
    N3490    N        0.60335    0.11451    0.48336    1.000
    Si3491   Si       0.58537    0.08299    0.38045    1.000
    Si3492   Si       0.58139    0.02969    0.43393    1.000
    N3493    N        0.57954    0.17751    0.44825    1.000
    N3494    N        0.62051    0.22847    0.43895    1.000
    Si3495   Si       0.61720    0.19200    0.46173    1.000
    N3496    N        0.59336    0.20644    0.37404    1.000
    Si3497   Si       0.59620    0.23907    0.40228    1.000
    N3498    N        0.58949    0.11379    0.60962    1.000
    N3499    N        0.58697    0.02241    0.53950    1.000
    Si3500   Si       0.62779    0.03300    0.55091    1.000
    N3501    N        0.62476    0.05131    0.58930    1.000
    Si3502   Si       0.63149    0.10673    0.51616    1.000
    Si3503   Si       0.61211    0.07790    0.62034    1.000
    N3504    N        0.62204    0.13205    0.54879    1.000
    Si3505   Si       0.58525    0.21734    0.58123    1.000
    Si3506   Si       0.60878    0.14607    0.58774    1.000
    N3507    N        0.58856    0.24814    0.61244    1.000
    N3508    N        0.62662    0.21915    0.57075    1.000
    N3509    N        0.61591    0.20974    0.50078    1.000
    N3510    N        0.57703    0.17518    0.58241    1.000
    N3511    N        0.63191    0.09678    0.73634    1.000
    Si3512   Si       0.60531    0.12210    0.71490    1.000
    N3513    N        0.61673    0.04087    0.70058    1.000
    Si3514   Si       0.58035    0.06196    0.68399    1.000
    N3515    N        0.57929    0.05432    0.64102    1.000
    Si3516   Si       0.58238    0.17296    0.67599    1.000
    Si3517   Si       0.62648    0.23492    0.66082    1.000
    N3518    N        0.61630    0.14703    0.68109    1.000
    N3519    N        0.58737    0.21341    0.66628    1.000
    N3520    N        0.58906    0.09798    0.79940    1.000
    N3521    N        0.59475    0.02868    0.79320    1.000
    N3522    N        0.59773    0.07013    0.85980    1.000
    Si3523   Si       0.61478    0.06460    0.81637    1.000
    Si3524   Si       0.62196    0.11374    0.77673    1.000
    N3525    N        0.59541    0.17598    0.82882    1.000
    Si3526   Si       0.59020    0.21156    0.80131    1.000
    N3527    N        0.62611    0.21098    0.77551    1.000
    N3528    N        0.59126    0.25267    0.81317    1.000
    N3529    N        0.60634    0.15023    0.75095    1.000
    Si3530   Si       0.63556    0.16371    0.83698    1.000
    N3531    N        0.59805    0.05760    0.95951    1.000
    N3532    N        0.61198    0.11902    0.92164    1.000
    Si3533   Si       0.60648    0.10741    0.87797    1.000
    Si3534   Si       0.58633    0.09758    0.94844    1.000
    N3535    N        0.58641    0.11742    0.98792    1.000
    Si3536   Si       0.63203    0.06192    0.98642    1.000
    N3537    N        0.63632    0.16160    0.96251    1.000
    Si3538   Si       0.63511    0.22045    0.88763    1.000
    N3539    N        0.60414    0.19611    0.90174    1.000
    Si3540   Si       0.60546    0.16209    0.92800    1.000
    N3541    N        0.61743    0.25530    0.97211    1.000
    Si3542   Si       0.60200    0.29997    0.02851    1.000
    N3543    N        0.61982    0.36895    0.02103    1.000
    N3544    N        0.59013    0.32256    0.06456    1.000
    Si3545   Si       0.58769    0.36472    0.04948    1.000
    Si3546   Si       0.57718    0.30270    0.09975    1.000
    N3547    N        0.61250    0.39295    0.07872    1.000
    Si3548   Si       0.60404    0.44992    0.00938    1.000
    N3549    N        0.58340    0.46080    0.10071    1.000
    Si3550   Si       0.57856    0.42515    0.07904    1.000
    Si3551   Si       0.63481    0.38912    0.11509    1.000
    N3552    N        0.57891    0.33455    0.19305    1.000
    Si3553   Si       0.59015    0.32817    0.15293    1.000
    N3554    N        0.60508    0.29238    0.13136    1.000
    Si3555   Si       0.60815    0.31336    0.22034    1.000
    N3556    N        0.61650    0.36104    0.14411    1.000
    N3557    N        0.62562    0.27898    0.20176    1.000
    Si3558   Si       0.62996    0.25821    0.12735    1.000
    Si3559   Si       0.61525    0.46545    0.13200    1.000
    N3560    N        0.61366    0.48499    0.17102    1.000
    N3561    N        0.59949    0.39764    0.20618    1.000
    Si3562   Si       0.58191    0.48095    0.20080    1.000
    N3563    N        0.60644    0.46736    0.23532    1.000
    N3564    N        0.62218    0.42324    0.14045    1.000
    Si3565   Si       0.62485    0.42734    0.22767    1.000
    Si3566   Si       0.59786    0.39664    0.16322    1.000
    N3567    N        0.60130    0.30942    0.32334    1.000
    N3568    N        0.58575    0.35345    0.25652    1.000
    Si3569   Si       0.58411    0.30047    0.36206    1.000
    Si3570   Si       0.62927    0.36108    0.26372    1.000
    Si3571   Si       0.58150    0.28725    0.29258    1.000
    N3572    N        0.58192    0.28574    0.24541    1.000
    N3573    N        0.59257    0.39380    0.32977    1.000
    Si3574   Si       0.61739    0.41769    0.30384    1.000
    Si3575   Si       0.61168    0.49011    0.27344    1.000
    N3576    N        0.60617    0.45961    0.31240    1.000
    Si3577   Si       0.62333    0.38694    0.36326    1.000
    N3578    N        0.63089    0.40619    0.26475    1.000
    Si3579   Si       0.63298    0.45800    0.34874    1.000
    Si3580   Si       0.60319    0.31519    0.47986    1.000
    N3581    N        0.61058    0.27540    0.38420    1.000
    N3582    N        0.62184    0.35039    0.46524    1.000
    N3583    N        0.63663    0.28653    0.47721    1.000
    N3584    N        0.62145    0.45081    0.44742    1.000
    Si3585   Si       0.59431    0.44354    0.41428    1.000
    N3586    N        0.59965    0.40337    0.39659    1.000
    Si3587   Si       0.60872    0.46347    0.48708    1.000
    N3588    N        0.58662    0.50182    0.48636    1.000
    N3589    N        0.61067    0.47115    0.38282    1.000
    N3590    N        0.60556    0.35171    0.58548    1.000
    N3591    N        0.60968    0.31313    0.52447    1.000
    Si3592   Si       0.59536    0.31844    0.61293    1.000
    Si3593   Si       0.63202    0.26173    0.60097    1.000
    Si3594   Si       0.58311    0.33538    0.55182    1.000
    Si3595   Si       0.58850    0.40617    0.53454    1.000
    Si3596   Si       0.58755    0.47165    0.58349    1.000
    N3597    N        0.62687    0.49324    0.57908    1.000
    N3598    N        0.63075    0.39582    0.54264    1.000
    N3599    N        0.58015    0.43354    0.50120    1.000
    N3600    N        0.63607    0.40724    0.61408    1.000
    N3601    N        0.57984    0.33231    0.65209    1.000
    Si3602   Si       0.58485    0.29779    0.68177    1.000
    N3603    N        0.62234    0.27402    0.67925    1.000
    N3604    N        0.63311    0.30095    0.62418    1.000
    N3605    N        0.57901    0.31784    0.71939    1.000
    N3606    N        0.58853    0.46590    0.62588    1.000
    Si3607   Si       0.58843    0.42855    0.70209    1.000
    Si3608   Si       0.59862    0.42423    0.63186    1.000
    N3609    N        0.61814    0.42743    0.66979    1.000
    N3610    N        0.60383    0.43159    0.74423    1.000
    Si3611   Si       0.59628    0.31731    0.75944    1.000
    N3612    N        0.60278    0.36173    0.76016    1.000
    Si3613   Si       0.62459    0.27258    0.83602    1.000
    N3614    N        0.62951    0.29147    0.76058    1.000
    N3615    N        0.59080    0.41351    0.83684    1.000
    Si3616   Si       0.59002    0.46325    0.77235    1.000
    N3617    N        0.62379    0.46744    0.80132    1.000
    Si3618   Si       0.62811    0.39472    0.75196    1.000
    Si3619   Si       0.62965    0.42716    0.81786    1.000
    N3620    N        0.58013    0.49896    0.75071    1.000
    N3621    N        0.63337    0.36811    0.87938    1.000
    Si3622   Si       0.60949    0.29567    0.95920    1.000
    N3623    N        0.59616    0.36553    0.95513    1.000
    N3624    N        0.59170    0.30264    0.92039    1.000
    Si3625   Si       0.63247    0.36091    0.97960    1.000
    N3626    N        0.58439    0.31021    0.99111    1.000
    N3627    N        0.61410    0.25613    0.87498    1.000
    Si3628   Si       0.57872    0.27541    0.88992    1.000
    Si3629   Si       0.58429    0.40734    0.95137    1.000
    N3630    N        0.61550    0.42808    0.97304    1.000
    Si3631   Si       0.59676    0.38995    0.87272    1.000
    Si3632   Si       0.62596    0.49030    0.95130    1.000
    N3633    N        0.59328    0.48594    0.92400    1.000
    N3634    N        0.58500    0.41656    0.90825    1.000
    N3635    N        0.61127    0.49089    0.99146    1.000
    Si3636   Si       0.62072    0.60478    0.07066    1.000
    Si3637   Si       0.60687    0.52983    0.00774    1.000
    Si3638   Si       0.59421    0.54725    0.07408    1.000
    N3639    N        0.62375    0.56946    0.09746    1.000
    N3640    N        0.61306    0.51821    0.04921    1.000
    N3641    N        0.58463    0.58543    0.05466    1.000
    N3642    N        0.61314    0.64324    0.09014    1.000
    Si3643   Si       0.60388    0.68012    0.07072    1.000
    N3644    N        0.60088    0.70913    0.10284    1.000
    N3645    N        0.62556    0.69269    0.03576    1.000
    Si3646   Si       0.60555    0.70552    0.99861    1.000
    N3647    N        0.61049    0.54278    0.21349    1.000
    N3648    N        0.58297    0.55336    0.15200    1.000
    Si3649   Si       0.62358    0.57053    0.13984    1.000
    N3650    N        0.63493    0.63137    0.20616    1.000
    Si3651   Si       0.59279    0.63202    0.19799    1.000
    N3652    N        0.58014    0.71990    0.16355    1.000
    N3653    N        0.58167    0.74228    0.22263    1.000
    Si3654   Si       0.61914    0.64187    0.13251    1.000
    N3655    N        0.58301    0.63403    0.15442    1.000
    Si3656   Si       0.62790    0.71545    0.13973    1.000
    N3657    N        0.57989    0.66774    0.22064    1.000
    N3658    N        0.61593    0.59604    0.32576    1.000
    N3659    N        0.60828    0.60180    0.26137    1.000
    Si3660   Si       0.60992    0.55089    0.32834    1.000
    Si3661   Si       0.58679    0.61586    0.29804    1.000
    N3662    N        0.61770    0.53436    0.28873    1.000
    Si3663   Si       0.61862    0.56057    0.25310    1.000
    N3664    N        0.57754    0.52026    0.34225    1.000
    Si3665   Si       0.61900    0.67999    0.32661    1.000
    N3666    N        0.59481    0.65703    0.29608    1.000
    Si3667   Si       0.59149    0.74418    0.32332    1.000
    N3668    N        0.63088    0.72280    0.32112    1.000
    N3669    N        0.60694    0.66739    0.36860    1.000
    Si3670   Si       0.61676    0.51402    0.39155    1.000
    N3671    N        0.61325    0.60365    0.41397    1.000
    N3672    N        0.59862    0.53510    0.42439    1.000
    N3673    N        0.61243    0.56865    0.48455    1.000
    Si3674   Si       0.59856    0.59658    0.45490    1.000
    Si3675   Si       0.61206    0.52938    0.46577    1.000
    N3676    N        0.60725    0.63304    0.47543    1.000
    N3677    N        0.62912    0.73547    0.40120    1.000
    Si3678   Si       0.59297    0.74236    0.42620    1.000
    N3679    N        0.61034    0.71984    0.45995    1.000
    Si3680   Si       0.62839    0.63964    0.39585    1.000
    N3681    N        0.59297    0.55202    0.54662    1.000
    Si3682   Si       0.60456    0.58810    0.52309    1.000
    N3683    N        0.60090    0.60158    0.60338    1.000
    Si3684   Si       0.62788    0.53137    0.56081    1.000
    N3685    N        0.60240    0.68878    0.60169    1.000
    Si3686   Si       0.62386    0.72554    0.61012    1.000
    N3687    N        0.62975    0.74230    0.52598    1.000
    Si3688   Si       0.61889    0.70988    0.50086    1.000
    N3689    N        0.58538    0.68683    0.51834    1.000
    N3690    N        0.59537    0.52485    0.67308    1.000
    Si3691   Si       0.60396    0.60146    0.64782    1.000
    N3692    N        0.58145    0.56770    0.73834    1.000
    Si3693   Si       0.57840    0.72060    0.67021    1.000
    N3694    N        0.62456    0.64290    0.72642    1.000
    N3695    N        0.60655    0.74292    0.64665    1.000
    Si3696   Si       0.63290    0.66261    0.62166    1.000
    N3697    N        0.61149    0.64278    0.65616    1.000
    Si3698   Si       0.59663    0.71606    0.74004    1.000
    Si3699   Si       0.60011    0.65818    0.69342    1.000
    N3700    N        0.60796    0.70164    0.69970    1.000
    N3701    N        0.61834    0.75556    0.74458    1.000
    Si3702   Si       0.59730    0.53746    0.76432    1.000
    N3703    N        0.59236    0.55050    0.80569    1.000
    Si3704   Si       0.60579    0.62188    0.83728    1.000
    Si3705   Si       0.61863    0.54881    0.84116    1.000
    N3706    N        0.62468    0.62530    0.79844    1.000
    N3707    N        0.63036    0.58862    0.85336    1.000
    Si3708   Si       0.60494    0.64631    0.76512    1.000
    Si3709   Si       0.61432    0.70023    0.81360    1.000
    N3710    N        0.60265    0.74067    0.81863    1.000
    N3711    N        0.59464    0.66723    0.84104    1.000
    N3712    N        0.60644    0.68894    0.77270    1.000
    N3713    N        0.59458    0.53239    0.87168    1.000
    Si3714   Si       0.62043    0.57592    0.95291    1.000
    N3715    N        0.61588    0.61965    0.95860    1.000
    Si3716   Si       0.59273    0.52838    0.91345    1.000
    N3717    N        0.58280    0.56694    0.93264    1.000
    N3718    N        0.63236    0.56234    0.99464    1.000
    N3719    N        0.63562    0.53182    0.93631    1.000
    Si3720   Si       0.63095    0.74311    0.93419    1.000
    N3721    N        0.59619    0.67779    0.92076    1.000
    N3722    N        0.58215    0.67057    0.98867    1.000
    N3723    N        0.58858    0.74745    0.92370    1.000
    Si3724   Si       0.58222    0.64821    0.95142    1.000
    Si3725   Si       0.63880    0.67857    0.90916    1.000
    N3726    N        0.62145    0.85896    0.03162    1.000
    N3727    N        0.60122    0.77226    0.05954    1.000
    Si3728   Si       0.58545    0.84665    0.00879    1.000
    Si3729   Si       0.58328    0.77931    0.09841    1.000
    Si3730   Si       0.63271    0.87763    0.06800    1.000
    N3731    N        0.60915    0.87559    0.10237    1.000
    N3732    N        0.59420    0.80403    0.99768    1.000
    Si3733   Si       0.58077    0.00346    0.06087    1.000
    N3734    N        0.60651    0.97373    0.03962    1.000
    N3735    N        0.62350    0.95632    0.10326    1.000
    Si3736   Si       0.58087    0.95752    0.11719    1.000
    Si3737   Si       0.57834    0.97006    0.00737    1.000
    N3738    N        0.61283    0.79093    0.20503    1.000
    N3739    N        0.59344    0.86442    0.22560    1.000
    N3740    N        0.60448    0.77267    0.13604    1.000
    Si3741   Si       0.62055    0.82968    0.22683    1.000
    Si3742   Si       0.60005    0.75749    0.17895    1.000
    N3743    N        0.61789    0.89648    0.16977    1.000
    N3744    N        0.62338    0.92824    0.24137    1.000
    Si3745   Si       0.60145    0.90653    0.21018    1.000
    Si3746   Si       0.58972    0.88651    0.13893    1.000
    N3747    N        0.59708    0.97597    0.15326    1.000
    N3748    N        0.59577    0.77313    0.35471    1.000
    N3749    N        0.61397    0.81478    0.26716    1.000
    N3750    N        0.58119    0.75994    0.28323    1.000
    Si3751   Si       0.60706    0.77046    0.24540    1.000
    Si3752   Si       0.61319    0.95692    0.27427    1.000
    N3753    N        0.60302    0.89498    0.34813    1.000
    Si3754   Si       0.62620    0.98534    0.33644    1.000
    N3755    N        0.62195    0.99990    0.26399    1.000
    N3756    N        0.58434    0.99619    0.33450    1.000
    Si3757   Si       0.63531    0.91625    0.37132    1.000
    N3758    N        0.60938    0.85497    0.45225    1.000
    Si3759   Si       0.60232    0.82075    0.42470    1.000
    N3760    N        0.58271    0.83649    0.38671    1.000
    Si3761   Si       0.63202    0.77076    0.37700    1.000
    Si3762   Si       0.63509    0.86838    0.48602    1.000
    N3763    N        0.58061    0.78444    0.43072    1.000
    N3764    N        0.58772    0.98522    0.42903    1.000
    N3765    N        0.58420    0.92204    0.47068    1.000
    Si3766   Si       0.62540    0.98435    0.40692    1.000
    Si3767   Si       0.59544    0.89298    0.43935    1.000
    N3768    N        0.62807    0.90570    0.41257    1.000
    N3769    N        0.62903    0.95804    0.37189    1.000
    N3770    N        0.62335    0.00203    0.48970    1.000
    Si3771   Si       0.59999    0.77043    0.54345    1.000
    Si3772   Si       0.60428    0.84787    0.55466    1.000
    N3773    N        0.59435    0.87505    0.58665    1.000
    N3774    N        0.60598    0.87537    0.51947    1.000
    N3775    N        0.60543    0.76254    0.58614    1.000
    N3776    N        0.58355    0.81225    0.53916    1.000
    N3777    N        0.60742    0.94690    0.53466    1.000
    Si3778   Si       0.59539    0.98515    0.51821    1.000
    Si3779   Si       0.61931    0.90003    0.60978    1.000
    N3780    N        0.62390    0.94178    0.60026    1.000
    Si3781   Si       0.58560    0.91468    0.51408    1.000
    Si3782   Si       0.59513    0.77992    0.62534    1.000
    N3783    N        0.61828    0.81511    0.63701    1.000
    N3784    N        0.60529    0.86632    0.68738    1.000
    Si3785   Si       0.61154    0.82479    0.67931    1.000
    N3786    N        0.57959    0.80669    0.70040    1.000
    Si3787   Si       0.62913    0.89048    0.71355    1.000
    Si3788   Si       0.59821    0.95370    0.63594    1.000
    N3789    N        0.60694    0.91992    0.74059    1.000
    Si3790   Si       0.61823    0.99708    0.70339    1.000
    N3791    N        0.58741    0.91205    0.64171    1.000
    N3792    N        0.62044    0.97115    0.66953    1.000
    N3793    N        0.58644    0.98191    0.73119    1.000
    N3794    N        0.61286    0.82824    0.85473    1.000
    Si3795   Si       0.61107    0.76828    0.78705    1.000
    Si3796   Si       0.58400    0.85148    0.79222    1.000
    N3797    N        0.62637    0.85552    0.79932    1.000
    N3798    N        0.58847    0.80631    0.77937    1.000
    N3799    N        0.59429    0.96604    0.79503    1.000
    Si3800   Si       0.62203    0.99798    0.81576    1.000
    N3801    N        0.59594    0.99784    0.85330    1.000
    Si3802   Si       0.62612    0.95378    0.76117    1.000
    N3803    N        0.59033    0.93269    0.85795    1.000
    Si3804   Si       0.61876    0.80645    0.96236    1.000
    N3805    N        0.59032    0.81198    0.92963    1.000
    N3806    N        0.60750    0.87887    0.90427    1.000
    Si3807   Si       0.63716    0.85680    0.87934    1.000
    N3808    N        0.57716    0.86374    0.96843    1.000
    Si3809   Si       0.57983    0.85389    0.92555    1.000
    Si3810   Si       0.61990    0.96746    0.87360    1.000
    Si3811   Si       0.61609    0.95346    0.95681    1.000
    Si3812   Si       0.58922    0.91689    0.89839    1.000
    N3813    N        0.61397    0.94825    0.91471    1.000
    N3814    N        0.59318    0.93021    0.98752    1.000
    N3815    N        0.59234    0.98920    0.96777    1.000
    N3816    N        0.67141    0.05434    0.07651    1.000
    Si3817   Si       0.68337    0.01554    0.08860    1.000
    Si3818   Si       0.69018    0.09398    0.07115    1.000
    N3819    N        0.67278    0.12891    0.09704    1.000
    Si3820   Si       0.66101    0.15977    0.06443    1.000
    N3821    N        0.63872    0.14386    0.02964    1.000
    Si3822   Si       0.63794    0.17828    0.00118    1.000
    N3823    N        0.69395    0.24121    0.04597    1.000
    N3824    N        0.64918    0.09242    0.15758    1.000
    Si3825   Si       0.67579    0.03398    0.21339    1.000
    Si3826   Si       0.69214    0.08884    0.16551    1.000
    N3827    N        0.69241    0.07386    0.20688    1.000
    N3828    N        0.64452    0.16196    0.22411    1.000
    N3829    N        0.67197    0.22720    0.19850    1.000
    Si3830   Si       0.68291    0.15681    0.24359    1.000
    N3831    N        0.66294    0.17506    0.15030    1.000
    Si3832   Si       0.66265    0.18562    0.19102    1.000
    Si3833   Si       0.69572    0.15552    0.12814    1.000
    Si3834   Si       0.65021    0.02697    0.28281    1.000
    N3835    N        0.64857    0.07235    0.28047    1.000
    Si3836   Si       0.68267    0.10011    0.29282    1.000
    N3837    N        0.68369    0.02401    0.25610    1.000
    Si3838   Si       0.64251    0.04941    0.36054    1.000
    N3839    N        0.64706    0.02302    0.32524    1.000
    N3840    N        0.66023    0.13161    0.31312    1.000
    Si3841   Si       0.67316    0.17407    0.31311    1.000
    N3842    N        0.63758    0.20060    0.32025    1.000
    N3843    N        0.68978    0.18358    0.27656    1.000
    N3844    N        0.68354    0.06400    0.36933    1.000
    Si3845   Si       0.68709    0.08670    0.40684    1.000
    N3846    N        0.65735    0.10512    0.43341    1.000
    N3847    N        0.67503    0.02880    0.46926    1.000
    N3848    N        0.63309    0.02266    0.39196    1.000
    Si3849   Si       0.63690    0.04225    0.48331    1.000
    N3850    N        0.65631    0.22813    0.38488    1.000
    N3851    N        0.65318    0.17498    0.44913    1.000
    N3852    N        0.64627    0.15687    0.37238    1.000
    Si3853   Si       0.67311    0.13827    0.45677    1.000
    N3854    N        0.68132    0.24325    0.45172    1.000
    Si3855   Si       0.66682    0.21089    0.42411    1.000
    Si3856   Si       0.68905    0.16077    0.38298    1.000
    Si3857   Si       0.64068    0.24325    0.47638    1.000
    N3858    N        0.66824    0.12192    0.49778    1.000
    N3859    N        0.63552    0.06305    0.52051    1.000
    Si3860   Si       0.66139    0.19560    0.59496    1.000
    N3861    N        0.67835    0.18908    0.55292    1.000
    Si3862   Si       0.64712    0.21228    0.53312    1.000
    N3863    N        0.66655    0.24513    0.51269    1.000
    N3864    N        0.64053    0.16182    0.61159    1.000
    N3865    N        0.68203    0.06827    0.69285    1.000
    Si3866   Si       0.64911    0.06093    0.72113    1.000
    Si3867   Si       0.68582    0.09410    0.65876    1.000
    N3868    N        0.64634    0.09520    0.64053    1.000
    Si3869   Si       0.68234    0.21211    0.71597    1.000
    N3870    N        0.67502    0.17898    0.74351    1.000
    N3871    N        0.65550    0.21371    0.68318    1.000
    N3872    N        0.67069    0.24930    0.73757    1.000
    Si3873   Si       0.64476    0.13995    0.64993    1.000
    N3874    N        0.68310    0.13663    0.66768    1.000
    N3875    N        0.65127    0.23183    0.62468    1.000
    Si3876   Si       0.68796    0.22505    0.65295    1.000
    Si3877   Si       0.67140    0.04539    0.79460    1.000
    N3878    N        0.65201    0.08396    0.79833    1.000
    N3879    N        0.64764    0.03189    0.82973    1.000
    Si3880   Si       0.68263    0.11678    0.80435    1.000
    N3881    N        0.66960    0.03825    0.75108    1.000
    N3882    N        0.63800    0.13013    0.86307    1.000
    N3883    N        0.66050    0.25682    0.81008    1.000
    Si3884   Si       0.68272    0.22869    0.83342    1.000
    N3885    N        0.65485    0.20086    0.85320    1.000
    N3886    N        0.64965    0.14552    0.79968    1.000
    Si3887   Si       0.64133    0.25127    0.77119    1.000
    Si3888   Si       0.64016    0.17234    0.76477    1.000
    Si3889   Si       0.66535    0.02940    0.86937    1.000
    Si3890   Si       0.65002    0.12375    0.94618    1.000
    Si3891   Si       0.67358    0.10963    0.87830    1.000
    N3892    N        0.66159    0.09296    0.97418    1.000
    N3893    N        0.66290    0.06912    0.88575    1.000
    N3894    N        0.65406    0.02659    0.98766    1.000
    N3895    N        0.68228    0.13019    0.91672    1.000
    N3896    N        0.66873    0.20692    0.99177    1.000
    Si3897   Si       0.65880    0.23836    0.96406    1.000
    N3898    N        0.66073    0.23672    0.92162    1.000
    Si3899   Si       0.66152    0.26712    0.06128    1.000
    N3900    N        0.68594    0.29861    0.08095    1.000
    N3901    N        0.64406    0.28898    0.02826    1.000
    N3902    N        0.67613    0.37890    0.11137    1.000
    N3903    N        0.69576    0.33191    0.01574    1.000
    Si3904   Si       0.69497    0.37521    0.00752    1.000
    N3905    N        0.63642    0.44547    0.04108    1.000
    N3906    N        0.64611    0.47938    0.10414    1.000
    N3907    N        0.67865    0.48917    0.05096    1.000
    N3908    N        0.67969    0.39823    0.04213    1.000
    Si3909   Si       0.68213    0.44428    0.04198    1.000
    Si3910   Si       0.68926    0.48443    0.09393    1.000
    Si3911   Si       0.63587    0.40069    0.04392    1.000
    Si3912   Si       0.63611    0.48470    0.06118    1.000
    N3913    N        0.66796    0.27132    0.14679    1.000
    N3914    N        0.64167    0.34093    0.22658    1.000
    Si3915   Si       0.68073    0.33978    0.20970    1.000
    Si3916   Si       0.66500    0.26973    0.19064    1.000
    N3917    N        0.68900    0.37215    0.18071    1.000
    Si3918   Si       0.67681    0.47179    0.23592    1.000
    N3919    N        0.66506    0.43607    0.21350    1.000
    N3920    N        0.66687    0.28682    0.33541    1.000
    N3921    N        0.65536    0.34578    0.29440    1.000
    N3922    N        0.64594    0.35050    0.36216    1.000
    Si3923   Si       0.64229    0.32214    0.32846    1.000
    N3924    N        0.65518    0.48019    0.27410    1.000
    N3925    N        0.64868    0.41832    0.33917    1.000
    N3926    N        0.66237    0.49088    0.34287    1.000
    Si3927   Si       0.68272    0.48658    0.30527    1.000
    Si3928   Si       0.69165    0.41269    0.33303    1.000
    Si3929   Si       0.65372    0.27093    0.37407    1.000
    Si3930   Si       0.67692    0.34204    0.39399    1.000
    Si3931   Si       0.66292    0.36092    0.45769    1.000
    N3932    N        0.67967    0.29732    0.39819    1.000
    N3933    N        0.67039    0.37699    0.41761    1.000
    N3934    N        0.69221    0.32434    0.45667    1.000
    N3935    N        0.65329    0.50739    0.47084    1.000
    N3936    N        0.69053    0.45055    0.42674    1.000
    N3937    N        0.67915    0.39268    0.48490    1.000
    N3938    N        0.65763    0.50757    0.41076    1.000
    Si3939   Si       0.65581    0.47195    0.43772    1.000
    N3940    N        0.67496    0.35331    0.58888    1.000
    Si3941   Si       0.68117    0.31443    0.57054    1.000
    N3942    N        0.68173    0.31913    0.52829    1.000
    N3943    N        0.65022    0.28139    0.56688    1.000
    Si3944   Si       0.64846    0.29194    0.52289    1.000
    Si3945   Si       0.63872    0.37884    0.58132    1.000
    Si3946   Si       0.66829    0.49345    0.50942    1.000
    Si3947   Si       0.66192    0.41524    0.51887    1.000
    N3948    N        0.64550    0.45559    0.51338    1.000
    N3949    N        0.68853    0.46148    0.61078    1.000
    Si3950   Si       0.66600    0.50017    0.60065    1.000
    N3951    N        0.69442    0.42132    0.54886    1.000
    Si3952   Si       0.66686    0.29358    0.73377    1.000
    Si3953   Si       0.65737    0.29495    0.66236    1.000
    N3954    N        0.66626    0.31862    0.69727    1.000
    Si3955   Si       0.67951    0.36030    0.70060    1.000
    N3956    N        0.67343    0.37380    0.65959    1.000
    N3957    N        0.69251    0.26971    0.65577    1.000
    Si3958   Si       0.68775    0.47866    0.65260    1.000
    Si3959   Si       0.67305    0.43433    0.71514    1.000
    Si3960   Si       0.65600    0.41230    0.65293    1.000
    N3961    N        0.65644    0.50536    0.64152    1.000
    N3962    N        0.67202    0.47992    0.72471    1.000
    N3963    N        0.65674    0.39251    0.72013    1.000
    N3964    N        0.68197    0.44110    0.67360    1.000
    Si3965   Si       0.67535    0.29928    0.80509    1.000
    N3966    N        0.64549    0.31034    0.84097    1.000
    N3967    N        0.68988    0.31173    0.76552    1.000
    N3968    N        0.69484    0.36455    0.86427    1.000
    N3969    N        0.65227    0.40416    0.78662    1.000
    N3970    N        0.65784    0.42776    0.85005    1.000
    Si3971   Si       0.65431    0.49818    0.79692    1.000
    Si3972   Si       0.69718    0.40659    0.78287    1.000
    N3973    N        0.69589    0.49039    0.78527    1.000
    Si3974   Si       0.69579    0.44915    0.84489    1.000
    Si3975   Si       0.66181    0.33456    0.87250    1.000
    Si3976   Si       0.69011    0.26606    0.90849    1.000
    N3977    N        0.69010    0.27229    0.97467    1.000
    N3978    N        0.64509    0.32120    0.96839    1.000
    N3979    N        0.69042    0.30830    0.89474    1.000
    Si3980   Si       0.67039    0.30224    0.99782    1.000
    Si3981   Si       0.66659    0.39625    0.87699    1.000
    Si3982   Si       0.65519    0.42388    0.95544    1.000
    N3983    N        0.66347    0.46731    0.95253    1.000
    N3984    N        0.67328    0.41118    0.91718    1.000
    N3985    N        0.66709    0.38709    0.97713    1.000
    N3986    N        0.65409    0.60937    0.04576    1.000
    Si3987   Si       0.66632    0.58350    0.01246    1.000
    Si3988   Si       0.68699    0.63350    0.06562    1.000
    Si3989   Si       0.66813    0.69970    0.03573    1.000
    N3990    N        0.67456    0.73864    0.05123    1.000
    N3991    N        0.68247    0.67820    0.06969    1.000
    Si3992   Si       0.69061    0.71894    0.08923    1.000
    N3993    N        0.68801    0.68371    0.00184    1.000
    N3994    N        0.65238    0.54120    0.15471    1.000
    N3995    N        0.64577    0.60855    0.14337    1.000
    Si3996   Si       0.69001    0.61128    0.14240    1.000
    N3997    N        0.66874    0.51177    0.21700    1.000
    Si3998   Si       0.63589    0.51661    0.18826    1.000
    Si3999   Si       0.64834    0.61496    0.24458    1.000
    Si4000   Si       0.69292    0.53903    0.14286    1.000
    N4001    N        0.66487    0.73209    0.12145    1.000
    Si4002   Si       0.66139    0.65565    0.18214    1.000
    N4003    N        0.67664    0.68874    0.20640    1.000
    N4004    N        0.63848    0.67594    0.15212    1.000
    Si4005   Si       0.68245    0.72274    0.18140    1.000
    N4006    N        0.64202    0.73959    0.17789    1.000
    Si4007   Si       0.65352    0.61544    0.33061    1.000
    N4008    N        0.68776    0.59461    0.31394    1.000
    Si4009   Si       0.68653    0.53814    0.25209    1.000
    N4010    N        0.66128    0.57366    0.24918    1.000
    N4011    N        0.63519    0.54479    0.36667    1.000
    N4012    N        0.68320    0.63828    0.25447    1.000
    N4013    N        0.65791    0.65872    0.32330    1.000
    Si4014   Si       0.66952    0.74056    0.32550    1.000
    N4015    N        0.68592    0.70566    0.27166    1.000
    Si4016   Si       0.69026    0.68110    0.30770    1.000
    Si4017   Si       0.69070    0.74780    0.25737    1.000
    Si4018   Si       0.67664    0.52114    0.37373    1.000
    N4019    N        0.66034    0.61171    0.37411    1.000
    Si4020   Si       0.67990    0.52856    0.44394    1.000
    N4021    N        0.66747    0.56791    0.43180    1.000
    N4022    N        0.67423    0.61881    0.47980    1.000
    Si4023   Si       0.64305    0.57673    0.39662    1.000
    Si4024   Si       0.69328    0.59631    0.45079    1.000
    N4025    N        0.64707    0.66615    0.42728    1.000
    Si4026   Si       0.64364    0.70923    0.43433    1.000
    Si4027   Si       0.64715    0.64908    0.46765    1.000
    N4028    N        0.68560    0.72229    0.44172    1.000
    N4029    N        0.65376    0.68268    0.49386    1.000
    Si4030   Si       0.68037    0.61340    0.52237    1.000
    N4031    N        0.66033    0.52807    0.53371    1.000
    N4032    N        0.65207    0.55749    0.58716    1.000
    Si4033   Si       0.68817    0.55012    0.56013    1.000
    N4034    N        0.64050    0.60298    0.54036    1.000
    Si4035   Si       0.63918    0.59934    0.58464    1.000
    N4036    N        0.65905    0.63488    0.60022    1.000
    Si4037   Si       0.66483    0.74662    0.55139    1.000
    N4038    N        0.66201    0.72908    0.58997    1.000
    Si4039   Si       0.69138    0.68603    0.51504    1.000
    N4040    N        0.69067    0.65040    0.54103    1.000
    Si4041   Si       0.68789    0.71271    0.62037    1.000
    N4042    N        0.66347    0.54420    0.69583    1.000
    Si4043   Si       0.66935    0.52384    0.73298    1.000
    N4044    N        0.68251    0.60602    0.72032    1.000
    Si4045   Si       0.67550    0.58413    0.68181    1.000
    N4046    N        0.63888    0.58051    0.65786    1.000
    Si4047   Si       0.63539    0.53649    0.66497    1.000
    Si4048   Si       0.66716    0.64596    0.72986    1.000
    N4049    N        0.65421    0.69482    0.64251    1.000
    Si4050   Si       0.65032    0.70837    0.68299    1.000
    N4051    N        0.67446    0.68244    0.70732    1.000
    N4052    N        0.66720    0.74446    0.69441    1.000
    N4053    N        0.65492    0.52418    0.83479    1.000
    Si4054   Si       0.66769    0.62366    0.79479    1.000
    N4055    N        0.64116    0.52821    0.76423    1.000
    N4056    N        0.68958    0.63080    0.83314    1.000
    Si4057   Si       0.69326    0.52967    0.85717    1.000
    N4058    N        0.67792    0.65784    0.77044    1.000
    N4059    N        0.65723    0.69448    0.82358    1.000
    Si4060   Si       0.67513    0.66761    0.85347    1.000
    Si4061   Si       0.68730    0.69545    0.79137    1.000
    N4062    N        0.68557    0.72825    0.76374    1.000
    Si4063   Si       0.66148    0.60296    0.87965    1.000
    N4064    N        0.65534    0.58808    0.92135    1.000
    Si4065   Si       0.65772    0.62455    0.94948    1.000
    Si4066   Si       0.67551    0.54833    0.92569    1.000
    N4067    N        0.68493    0.60769    0.98029    1.000
    N4068    N        0.64886    0.64657    0.88021    1.000
    N4069    N        0.63802    0.71810    0.97038    1.000
    N4070    N        0.64820    0.71879    0.90193    1.000
    Si4071   Si       0.67727    0.70060    0.96316    1.000
    Si4072   Si       0.69013    0.72622    0.89676    1.000
    N4073    N        0.66765    0.66594    0.93885    1.000
    N4074    N        0.66018    0.78951    0.09285    1.000
    N4075    N        0.67015    0.85673    0.08177    1.000
    N4076    N        0.66234    0.80223    0.02888    1.000
    Si4077   Si       0.65669    0.84135    0.01223    1.000
    Si4078   Si       0.64479    0.76997    0.05681    1.000
    N4079    N        0.68963    0.86785    0.01454    1.000
    Si4080   Si       0.68983    0.81811    0.07905    1.000
    N4081    N        0.65249    0.91751    0.05284    1.000
    N4082    N        0.67872    0.98141    0.06118    1.000
    Si4083   Si       0.63966    0.95868    0.06395    1.000
    Si4084   Si       0.69257    0.90181    0.04066    1.000
    Si4085   Si       0.64943    0.77434    0.13208    1.000
    Si4086   Si       0.65961    0.78150    0.20370    1.000
    N4087    N        0.67122    0.79633    0.16216    1.000
    N4088    N        0.66443    0.82370    0.22801    1.000
    Si4089   Si       0.69264    0.85503    0.21462    1.000
    N4090    N        0.69471    0.94929    0.23667    1.000
    N4091    N        0.68071    0.90599    0.13245    1.000
    Si4092   Si       0.65975    0.90666    0.16925    1.000
    Si4093   Si       0.66555    0.91777    0.24215    1.000
    N4094    N        0.67235    0.89206    0.20803    1.000
    N4095    N        0.65746    0.95084    0.17303    1.000
    N4096    N        0.67000    0.00170    0.13003    1.000
    Si4097   Si       0.69150    0.96167    0.19646    1.000
    Si4098   Si       0.63971    0.97415    0.14207    1.000
    N4099    N        0.69925    0.00497    0.19068    1.000
    N4100    N        0.66366    0.77532    0.34901    1.000
    Si4101   Si       0.65887    0.80652    0.26818    1.000
    N4102    N        0.67899    0.83046    0.29883    1.000
    Si4103   Si       0.68878    0.80744    0.33314    1.000
    N4104    N        0.68453    0.83859    0.36511    1.000
    N4105    N        0.64922    0.76444    0.25108    1.000
    N4106    N        0.67554    0.89923    0.28045    1.000
    Si4107   Si       0.67440    0.92873    0.31433    1.000
    N4108    N        0.67305    0.90843    0.35185    1.000
    N4109    N        0.64203    0.95541    0.30763    1.000
    Si4110   Si       0.68045    0.81993    0.40432    1.000
    N4111    N        0.63939    0.80486    0.40639    1.000
    N4112    N        0.65223    0.90634    0.47858    1.000
    Si4113   Si       0.66233    0.98718    0.47402    1.000
    N4114    N        0.65299    0.96781    0.43560    1.000
    Si4115   Si       0.65787    0.92440    0.43862    1.000
    Si4116   Si       0.67334    0.82746    0.54091    1.000
    N4117    N        0.68330    0.78616    0.54460    1.000
    Si4118   Si       0.64793    0.83580    0.61421    1.000
    N4119    N        0.66669    0.83975    0.49895    1.000
    N4120    N        0.64374    0.83390    0.57100    1.000
    N4121    N        0.67185    0.92080    0.54872    1.000
    N4122    N        0.65207    0.99658    0.55836    1.000
    Si4123   Si       0.68050    0.92435    0.50717    1.000
    Si4124   Si       0.64276    0.95348    0.56176    1.000
    Si4125   Si       0.69262    0.00464    0.57585    1.000
    N4126    N        0.69104    0.96459    0.49696    1.000
    N4127    N        0.65114    0.87683    0.62605    1.000
    N4128    N        0.65812    0.87019    0.73891    1.000
    N4129    N        0.64917    0.81430    0.70054    1.000
    Si4130   Si       0.65054    0.77492    0.71974    1.000
    Si4131   Si       0.68073    0.83802    0.71998    1.000
    N4132    N        0.68863    0.82093    0.62519    1.000
    N4133    N        0.68861    0.79110    0.74128    1.000
    N4134    N        0.64999    0.97212    0.72425    1.000
    N4135    N        0.65507    0.91157    0.68625    1.000
    Si4136   Si       0.68005    0.88871    0.65588    1.000
    Si4137   Si       0.65692    0.95416    0.68448    1.000
    N4138    N        0.67767    0.82514    0.84659    1.000
    N4139    N        0.65229    0.78341    0.79916    1.000
    Si4140   Si       0.64128    0.82062    0.82296    1.000
    Si4141   Si       0.68837    0.76948    0.77936    1.000
    Si4142   Si       0.65466    0.88152    0.77948    1.000
    N4143    N        0.69367    0.76340    0.86947    1.000
    Si4144   Si       0.69485    0.86463    0.84047    1.000
    N4145    N        0.69236    0.86873    0.79800    1.000
    N4146    N        0.66378    0.88686    0.86046    1.000
    N4147    N        0.64892    0.95755    0.84262    1.000
    N4148    N        0.65245    0.98664    0.78425    1.000
    Si4149   Si       0.67613    0.92639    0.85982    1.000
    N4150    N        0.65000    0.92409    0.78405    1.000
    Si4151   Si       0.67681    0.95449    0.80173    1.000
    Si4152   Si       0.67967    0.99432    0.74631    1.000
    N4153    N        0.66138    0.83168    0.90569    1.000
    Si4154   Si       0.68293    0.82564    0.94374    1.000
    N4155    N        0.64717    0.83906    0.96956    1.000
    N4156    N        0.64816    0.78068    0.94611    1.000
    Si4157   Si       0.68470    0.80122    0.88529    1.000
    N4158    N        0.65897    0.95515    0.96044    1.000
    N4159    N        0.64879    0.99607    0.89137    1.000
    N4160    N        0.69002    0.94008    0.89886    1.000
    Si4161   Si       0.66789    0.97070    0.92086    1.000
    N4162    N        0.70044    0.99773    0.93595    1.000
    N4163    N        0.73168    0.09235    0.08754    1.000
    N4164    N        0.72485    0.01720    0.09912    1.000
    Si4165   Si       0.73655    0.05662    0.11042    1.000
    N4166    N        0.70623    0.10337    0.03236    1.000
    Si4167   Si       0.74626    0.11245    0.05149    1.000
    Si4168   Si       0.73702    0.18281    0.07494    1.000
    Si4169   Si       0.70240    0.20544    0.02091    1.000
    N4170    N        0.72334    0.18540    0.11655    1.000
    N4171    N        0.69898    0.17623    0.05200    1.000
    N4172    N        0.75455    0.21987    0.06246    1.000
    Si4173   Si       0.72914    0.25334    0.06791    1.000
    Si4174   Si       0.70908    0.01179    0.14821    1.000
    N4175    N        0.70972    0.05536    0.14551    1.000
    Si4176   Si       0.72094    0.09127    0.23465    1.000
    N4177    N        0.74621    0.11370    0.20779    1.000
    N4178    N        0.71195    0.12784    0.15532    1.000
    Si4179   Si       0.73409    0.14973    0.18600    1.000
    N4180    N        0.74311    0.23081    0.17806    1.000
    N4181    N        0.70644    0.17599    0.20904    1.000
    Si4182   Si       0.71403    0.21872    0.20773    1.000
    Si4183   Si       0.73984    0.22319    0.13505    1.000
    Si4184   Si       0.71534    0.05738    0.34242    1.000
    Si4185   Si       0.72297    0.02475    0.27419    1.000
    N4186    N        0.71447    0.02113    0.31720    1.000
    N4187    N        0.71817    0.08855    0.31304    1.000
    N4188    N        0.74568    0.06160    0.25958    1.000
    N4189    N        0.75229    0.05211    0.36521    1.000
    N4190    N        0.69649    0.11868    0.25697    1.000
    N4191    N        0.75642    0.19079    0.30171    1.000
    Si4192   Si       0.73450    0.20470    0.34000    1.000
    N4193    N        0.71419    0.23590    0.31513    1.000
    Si4194   Si       0.72236    0.21113    0.27975    1.000
    N4195    N        0.70303    0.17654    0.34420    1.000
    N4196    N        0.72042    0.23885    0.24638    1.000
    N4197    N        0.71867    0.13462    0.46023    1.000
    N4198    N        0.71788    0.06584    0.42979    1.000
    Si4199   Si       0.71568    0.04355    0.46609    1.000
    N4200    N        0.70791    0.12498    0.39461    1.000
    Si4201   Si       0.74248    0.12870    0.42524    1.000
    Si4202   Si       0.75528    0.05869    0.40747    1.000
    N4203    N        0.73782    0.00694    0.47389    1.000
    Si4204   Si       0.70275    0.23998    0.48987    1.000
    N4205    N        0.70400    0.18990    0.41141    1.000
    Si4206   Si       0.74589    0.19982    0.41304    1.000
    N4207    N        0.72327    0.20412    0.50050    1.000
    Si4208   Si       0.73957    0.05161    0.53129    1.000
    N4209    N        0.71591    0.01506    0.54022    1.000
    N4210    N        0.70253    0.03285    0.60511    1.000
    N4211    N        0.75014    0.07863    0.56420    1.000
    N4212    N        0.72684    0.07294    0.49720    1.000
    Si4213   Si       0.71079    0.11305    0.49798    1.000
    Si4214   Si       0.75235    0.12199    0.55774    1.000
    N4215    N        0.72714    0.13856    0.52822    1.000
    N4216    N        0.73693    0.14164    0.59406    1.000
    Si4217   Si       0.71602    0.18079    0.53508    1.000
    Si4218   Si       0.73898    0.18473    0.60545    1.000
    N4219    N        0.74730    0.19693    0.56287    1.000
    N4220    N        0.70020    0.19819    0.61879    1.000
    Si4221   Si       0.71746    0.04584    0.70237    1.000
    N4222    N        0.73468    0.07121    0.73354    1.000
    N4223    N        0.72366    0.08823    0.63912    1.000
    Si4224   Si       0.73374    0.04716    0.62935    1.000
    N4225    N        0.73442    0.02824    0.66724    1.000
    Si4226   Si       0.75115    0.11876    0.62623    1.000
    N4227    N        0.71557    0.00570    0.72391    1.000
    N4228    N        0.73111    0.14131    0.71885    1.000
    N4229    N        0.71678    0.20367    0.68836    1.000
    Si4230   Si       0.71855    0.15873    0.68103    1.000
    Si4231   Si       0.75259    0.21499    0.71398    1.000
    N4232    N        0.71253    0.04193    0.80334    1.000
    Si4233   Si       0.73686    0.03369    0.83891    1.000
    Si4234   Si       0.74207    0.11126    0.86047    1.000
    Si4235   Si       0.74296    0.05071    0.77172    1.000
    N4236    N        0.70072    0.11452    0.84482    1.000
    Si4237   Si       0.74886    0.11134    0.74952    1.000
    N4238    N        0.71026    0.02347    0.86931    1.000
    N4239    N        0.71676    0.12749    0.77796    1.000
    Si4240   Si       0.71479    0.16306    0.75369    1.000
    N4241    N        0.72191    0.21360    0.82098    1.000
    Si4242   Si       0.73912    0.23054    0.85713    1.000
    N4243    N        0.73918    0.20040    0.75217    1.000
    N4244    N        0.70075    0.25071    0.86763    1.000
    Si4245   Si       0.70320    0.09058    0.98919    1.000
    N4246    N        0.74091    0.10245    0.90281    1.000
    N4247    N        0.72280    0.05462    0.97640    1.000
    N4248    N        0.72941    0.12004    0.97193    1.000
    Si4249   Si       0.69484    0.02091    0.97419    1.000
    Si4250   Si       0.72931    0.00866    0.90646    1.000
    Si4251   Si       0.72245    0.13147    0.92984    1.000
    N4252    N        0.74602    0.16670    0.92677    1.000
    N4253    N        0.73445    0.19684    0.99418    1.000
    N4254    N        0.72823    0.36171    0.06410    1.000
    N4255    N        0.74127    0.29079    0.04928    1.000
    Si4256   Si       0.71192    0.32171    0.05426    1.000
    N4257    N        0.72552    0.25623    0.11112    1.000
    Si4258   Si       0.69822    0.28781    0.12100    1.000
    N4259    N        0.73938    0.49845    0.05529    1.000
    Si4260   Si       0.70262    0.39288    0.07957    1.000
    N4261    N        0.70067    0.43922    0.08690    1.000
    Si4262   Si       0.74362    0.42822    0.00313    1.000
    N4263    N        0.70481    0.44741    0.00340    1.000
    N4264    N        0.75292    0.42405    0.04435    1.000
    Si4265   Si       0.73924    0.37261    0.22452    1.000
    Si4266   Si       0.70369    0.36494    0.14055    1.000
    N4267    N        0.71488    0.32324    0.13832    1.000
    N4268    N        0.69196    0.29840    0.21222    1.000
    N4269    N        0.70259    0.36065    0.24493    1.000
    N4270    N        0.69872    0.43941    0.15509    1.000
    N4271    N        0.73777    0.39286    0.12685    1.000
    N4272    N        0.73106    0.41406    0.21327    1.000
    N4273    N        0.72037    0.47792    0.23466    1.000
    Si4274   Si       0.74915    0.44724    0.23703    1.000
    Si4275   Si       0.72682    0.43488    0.12319    1.000
    Si4276   Si       0.69434    0.41502    0.19037    1.000
    N4277    N        0.74095    0.29077    0.34347    1.000
    N4278    N        0.70881    0.30409    0.28096    1.000
    Si4279   Si       0.70594    0.27812    0.31682    1.000
    Si4280   Si       0.73508    0.37622    0.35975    1.000
    Si4281   Si       0.70018    0.34906    0.28633    1.000
    N4282    N        0.71297    0.37464    0.31947    1.000
    Si4283   Si       0.71892    0.28359    0.24372    1.000
    N4284    N        0.70847    0.45223    0.31745    1.000
    Si4285   Si       0.75212    0.45327    0.31151    1.000
    N4286    N        0.71967    0.34246    0.38154    1.000
    N4287    N        0.73862    0.28139    0.41728    1.000
    Si4288   Si       0.72335    0.30085    0.38167    1.000
    N4289    N        0.72532    0.27699    0.49157    1.000
    Si4290   Si       0.69791    0.28362    0.43950    1.000
    N4291    N        0.73919    0.35003    0.49783    1.000
    N4292    N        0.70831    0.40942    0.37298    1.000
    Si4293   Si       0.69760    0.41047    0.41334    1.000
    Si4294   Si       0.74078    0.50204    0.48927    1.000
    N4295    N        0.72010    0.50159    0.38518    1.000
    Si4296   Si       0.72397    0.38942    0.48148    1.000
    Si4297   Si       0.72534    0.47709    0.41924    1.000
    N4298    N        0.73251    0.39693    0.43998    1.000
    N4299    N        0.71666    0.29566    0.59013    1.000
    Si4300   Si       0.71134    0.31797    0.49643    1.000
    N4301    N        0.72216    0.39907    0.61441    1.000
    N4302    N        0.71028    0.48049    0.51199    1.000
    Si4303   Si       0.72574    0.44582    0.53054    1.000
    Si4304   Si       0.71056    0.43282    0.58823    1.000
    N4305    N        0.74413    0.45313    0.56971    1.000
    N4306    N        0.74573    0.41890    0.50438    1.000
    Si4307   Si       0.69878    0.36267    0.62624    1.000
    Si4308   Si       0.72219    0.28960    0.63273    1.000
    N4309    N        0.72456    0.33050    0.64277    1.000
    N4310    N        0.71907    0.35725    0.71886    1.000
    N4311    N        0.74477    0.48671    0.72236    1.000
    N4312    N        0.72772    0.49789    0.65293    1.000
    Si4313   Si       0.71997    0.35228    0.83117    1.000
    N4314    N        0.71327    0.36692    0.79001    1.000
    Si4315   Si       0.72120    0.33888    0.75897    1.000
    N4316    N        0.70891    0.30963    0.82898    1.000
    Si4317   Si       0.72378    0.29308    0.86489    1.000
    N4318    N        0.71819    0.42615    0.81598    1.000
    N4319    N        0.70798    0.48899    0.84921    1.000
    Si4320   Si       0.74647    0.41159    0.84690    1.000
    Si4321   Si       0.72630    0.50382    0.81263    1.000
    Si4322   Si       0.70979    0.47364    0.74825    1.000
    N4323    N        0.70446    0.43176    0.74815    1.000
    N4324    N        0.72899    0.32917    0.95059    1.000
    Si4325   Si       0.72086    0.34545    0.90849    1.000
    Si4326   Si       0.73070    0.28661    0.96146    1.000
    Si4327   Si       0.74893    0.36685    0.95999    1.000
    N4328    N        0.75052    0.32610    0.88218    1.000
    N4329    N        0.73103    0.26220    0.92424    1.000
    N4330    N        0.73588    0.38459    0.92209    1.000
    Si4331   Si       0.71504    0.42111    0.91735    1.000
    N4332    N        0.73550    0.38775    0.99358    1.000
    N4333    N        0.72795    0.45842    0.93607    1.000
    N4334    N        0.72172    0.43544    0.87816    1.000
    Si4335   Si       0.70346    0.47305    0.96771    1.000
    Si4336   Si       0.72466    0.48099    0.89280    1.000
    Si4337   Si       0.73172    0.58391    0.03038    1.000
    N4338    N        0.72018    0.62424    0.03829    1.000
    N4339    N        0.70560    0.62275    0.10286    1.000
    N4340    N        0.70431    0.52390    0.10346    1.000
    Si4341   Si       0.74343    0.53170    0.08477    1.000
    Si4342   Si       0.70724    0.51724    0.03079    1.000
    N4343    N        0.69689    0.55826    0.02950    1.000
    Si4344   Si       0.74961    0.62992    0.10369    1.000
    Si4345   Si       0.72313    0.65955    0.01385    1.000
    N4346    N        0.72938    0.73666    0.09661    1.000
    N4347    N        0.72423    0.74932    0.99760    1.000
    N4348    N        0.75170    0.67362    0.11506    1.000
    N4349    N        0.75275    0.68564    0.02917    1.000
    N4350    N        0.72032    0.51212    0.16563    1.000
    N4351    N        0.72498    0.54572    0.22991    1.000
    N4352    N        0.70973    0.57621    0.15499    1.000
    Si4353   Si       0.74714    0.58794    0.17233    1.000
    Si4354   Si       0.71295    0.51140    0.20701    1.000
    N4355    N        0.75396    0.61012    0.21044    1.000
    Si4356   Si       0.75588    0.57511    0.23673    1.000
    Si4357   Si       0.73502    0.67218    0.15540    1.000
    Si4358   Si       0.74531    0.74209    0.13585    1.000
    Si4359   Si       0.69722    0.67585    0.24234    1.000
    N4360    N        0.72093    0.71233    0.16059    1.000
    N4361    N        0.70498    0.64324    0.16725    1.000
    N4362    N        0.73940    0.68061    0.23802    1.000
    Si4363   Si       0.70975    0.55813    0.31865    1.000
    Si4364   Si       0.70732    0.61643    0.28248    1.000
    N4365    N        0.74361    0.59234    0.27612    1.000
    N4366    N        0.73678    0.62226    0.36112    1.000
    N4367    N        0.70318    0.55647    0.36517    1.000
    N4368    N        0.69749    0.52519    0.29317    1.000
    Si4369   Si       0.74401    0.53678    0.37296    1.000
    N4370    N        0.72317    0.65212    0.30261    1.000
    Si4371   Si       0.74595    0.71715    0.34059    1.000
    N4372    N        0.70291    0.71418    0.33528    1.000
    N4373    N        0.73766    0.75506    0.25470    1.000
    Si4374   Si       0.70385    0.59785    0.37660    1.000
    N4375    N        0.71151    0.61414    0.41685    1.000
    N4376    N        0.72966    0.57910    0.46982    1.000
    N4377    N        0.71829    0.50769    0.45160    1.000
    N4378    N        0.75027    0.73918    0.37858    1.000
    N4379    N        0.73375    0.68060    0.41459    1.000
    N4380    N        0.72546    0.67832    0.49030    1.000
    N4381    N        0.74744    0.72960    0.44743    1.000
    Si4382   Si       0.71744    0.69434    0.45226    1.000
    Si4383   Si       0.74220    0.64213    0.40118    1.000
    N4384    N        0.73168    0.61971    0.59453    1.000
    Si4385   Si       0.74116    0.57184    0.51045    1.000
    N4386    N        0.70602    0.58117    0.53508    1.000
    N4387    N        0.70459    0.52288    0.59055    1.000
    Si4388   Si       0.73669    0.52099    0.61799    1.000
    N4389    N        0.71253    0.68188    0.60330    1.000
    Si4390   Si       0.69817    0.64681    0.58504    1.000
    N4391    N        0.69442    0.72704    0.52657    1.000
    Si4392   Si       0.74779    0.75673    0.61305    1.000
    Si4393   Si       0.74348    0.59761    0.62963    1.000
    N4394    N        0.71517    0.58918    0.66385    1.000
    N4395    N        0.74847    0.60015    0.73234    1.000
    Si4396   Si       0.75126    0.59161    0.69004    1.000
    Si4397   Si       0.75117    0.52963    0.72813    1.000
    N4398    N        0.71119    0.54246    0.74145    1.000
    N4399    N        0.73131    0.73498    0.70556    1.000
    Si4400   Si       0.70640    0.75890    0.67692    1.000
    N4401    N        0.73473    0.68075    0.73573    1.000
    N4402    N        0.71441    0.74421    0.63688    1.000
    Si4403   Si       0.70027    0.70809    0.72766    1.000
    Si4404   Si       0.71304    0.59010    0.82872    1.000
    N4405    N        0.72543    0.54555    0.82587    1.000
    Si4406   Si       0.71004    0.58649    0.74649    1.000
    N4407    N        0.69783    0.59388    0.78591    1.000
    N4408    N        0.69718    0.57799    0.87328    1.000
    Si4409   Si       0.73721    0.69919    0.84595    1.000
    N4410    N        0.72749    0.69547    0.80364    1.000
    N4411    N        0.71619    0.51042    0.98715    1.000
    Si4412   Si       0.73828    0.53897    0.96547    1.000
    Si4413   Si       0.72889    0.60550    0.96645    1.000
    Si4414   Si       0.73046    0.57760    0.90166    1.000
    N4415    N        0.71418    0.56394    0.93962    1.000
    N4416    N        0.75132    0.57238    0.99111    1.000
    N4417    N        0.75208    0.60877    0.92574    1.000
    N4418    N        0.69693    0.51581    0.90143    1.000
    N4419    N        0.74688    0.64396    0.98139    1.000
    N4420    N        0.69990    0.73097    0.93912    1.000
    N4421    N        0.70543    0.69150    0.87415    1.000
    N4422    N        0.71977    0.79545    0.05490    1.000
    N4423    N        0.71601    0.83013    0.11474    1.000
    Si4424   Si       0.74901    0.76868    0.07319    1.000
    Si4425   Si       0.70142    0.87377    0.10813    1.000
    Si4426   Si       0.70159    0.78162    0.01811    1.000
    N4427    N        0.71813    0.89708    0.07435    1.000
    N4428    N        0.74290    0.94882    0.10755    1.000
    N4429    N        0.71171    0.93262    0.01626    1.000
    Si4430   Si       0.71617    0.97444    0.03803    1.000
    N4431    N        0.71147    0.99113    0.99907    1.000
    Si4432   Si       0.75665    0.98687    0.09415    1.000
    N4433    N        0.71529    0.84541    0.18024    1.000
    N4434    N        0.73425    0.77581    0.16131    1.000
    Si4435   Si       0.74007    0.76908    0.20951    1.000
    Si4436   Si       0.71028    0.81172    0.15473    1.000
    Si4437   Si       0.75137    0.86784    0.16850    1.000
    N4438    N        0.69596    0.75787    0.21287    1.000
    N4439    N        0.72406    0.94158    0.17437    1.000
    N4440    N        0.75039    0.99841    0.15493    1.000
    Si4441   Si       0.71928    0.92668    0.13513    1.000
    N4442    N        0.74043    0.88906    0.13255    1.000
    N4443    N        0.73251    0.80226    0.34261    1.000
    N4444    N        0.72773    0.87303    0.31717    1.000
    Si4445   Si       0.73924    0.77633    0.29421    1.000
    Si4446   Si       0.69981    0.86386    0.28492    1.000
    Si4447   Si       0.70298    0.87703    0.35537    1.000
    N4448    N        0.72140    0.85383    0.24700    1.000
    N4449    N        0.69332    0.77087    0.29518    1.000
    Si4450   Si       0.74508    0.91159    0.30473    1.000
    Si4451   Si       0.72617    0.98162    0.33543    1.000
    N4452    N        0.71668    0.94456    0.31568    1.000
    N4453    N        0.74905    0.99312    0.26706    1.000
    Si4454   Si       0.73640    0.95630    0.24522    1.000
    Si4455   Si       0.70084    0.82648    0.47387    1.000
    N4456    N        0.74186    0.83753    0.48915    1.000
    N4457    N        0.71069    0.78657    0.40856    1.000
    Si4458   Si       0.74548    0.78230    0.37987    1.000
    N4459    N        0.70199    0.78232    0.47451    1.000
    N4460    N        0.69753    0.84661    0.43528    1.000
    Si4461   Si       0.71151    0.75589    0.43930    1.000
    Si4462   Si       0.72342    0.95144    0.41089    1.000
    Si4463   Si       0.72058    0.88399    0.42645    1.000
    N4464    N        0.73297    0.88531    0.38422    1.000
    N4465    N        0.69924    0.91956    0.42646    1.000
    N4466    N        0.71541    0.97482    0.37602    1.000
    Si4467   Si       0.71688    0.82844    0.59384    1.000
    Si4468   Si       0.71010    0.76804    0.51421    1.000
    N4469    N        0.70435    0.85238    0.56166    1.000
    N4470    N        0.74445    0.79561    0.59210    1.000
    N4471    N        0.75221    0.77832    0.52181    1.000
    Si4472   Si       0.70780    0.89530    0.55298    1.000
    Si4473   Si       0.72656    0.98639    0.50870    1.000
    N4474    N        0.71580    0.89874    0.50980    1.000
    Si4475   Si       0.74686    0.89570    0.61335    1.000
    N4476    N        0.74528    0.90732    0.57093    1.000
    N4477    N        0.70454    0.96790    0.59314    1.000
    N4478    N        0.74351    0.85082    0.62240    1.000
    Si4479   Si       0.74026    0.87052    0.70863    1.000
    N4480    N        0.72075    0.79826    0.68517    1.000
    Si4481   Si       0.72939    0.80171    0.72735    1.000
    Si4482   Si       0.72198    0.83152    0.65706    1.000
    N4483    N        0.70217    0.86274    0.68314    1.000
    N4484    N        0.72338    0.84442    0.73974    1.000
    Si4485   Si       0.71371    0.95568    0.63281    1.000
    N4486    N        0.69375    0.96818    0.66925    1.000
    N4487    N        0.75166    0.97011    0.64702    1.000
    Si4488   Si       0.73245    0.98555    0.68499    1.000
    N4489    N        0.71132    0.91167    0.63225    1.000
    Si4490   Si       0.73024    0.86161    0.77828    1.000
    N4491    N        0.72504    0.77380    0.80306    1.000
    Si4492   Si       0.72840    0.77233    0.84587    1.000
    N4493    N        0.73362    0.86996    0.85549    1.000
    N4494    N        0.75309    0.80401    0.86515    1.000
    N4495    N        0.70648    0.93490    0.82870    1.000
    N4496    N        0.70735    0.96671    0.77113    1.000
    Si4497   Si       0.74596    0.93193    0.80929    1.000
    Si4498   Si       0.74400    0.97984    0.75008    1.000
    N4499    N        0.75160    0.89673    0.78556    1.000
    N4500    N        0.71031    0.80851    0.98275    1.000
    N4501    N        0.71139    0.79687    0.92193    1.000
    Si4502   Si       0.71947    0.85079    0.98668    1.000
    N4503    N        0.71267    0.85977    0.94312    1.000
    Si4504   Si       0.72243    0.76915    0.95631    1.000
    Si4505   Si       0.75517    0.86825    0.93763    1.000
    Si4506   Si       0.74552    0.91678    0.99290    1.000
    Si4507   Si       0.73086    0.93650    0.91609    1.000
    N4508    N        0.72672    0.93510    0.95827    1.000
    N4509    N        0.75035    0.97105    0.89932    1.000
    Si4510   Si       0.69575    0.95534    0.98053    1.000
    N4511    N        0.77618    0.09781    0.02336    1.000
    N4512    N        0.80588    0.03673    0.05415    1.000
    N4513    N        0.80688    0.10093    0.08301    1.000
    Si4514   Si       0.80783    0.07950    0.04573    1.000
    Si4515   Si       0.79226    0.23444    0.04634    1.000
    Si4516   Si       0.80330    0.14303    0.07909    1.000
    N4517    N        0.76362    0.15092    0.06493    1.000
    N4518    N        0.80646    0.21132    0.01201    1.000
    N4519    N        0.81743    0.16156    0.11648    1.000
    N4520    N        0.77751    0.05483    0.12520    1.000
    Si4521   Si       0.78046    0.02712    0.15798    1.000
    N4522    N        0.76923    0.05146    0.19188    1.000
    Si4523   Si       0.78077    0.09397    0.19002    1.000
    Si4524   Si       0.78056    0.05109    0.23445    1.000
    N4525    N        0.80205    0.08982    0.22901    1.000
    N4526    N        0.80721    0.10464    0.15814    1.000
    Si4527   Si       0.81126    0.07900    0.12145    1.000
    N4528    N        0.77303    0.16777    0.18299    1.000
    N4529    N        0.80164    0.23187    0.20498    1.000
    Si4530   Si       0.78295    0.20633    0.17649    1.000
    N4531    N        0.78386    0.21534    0.13497    1.000
    Si4532   Si       0.78323    0.03158    0.34269    1.000
    N4533    N        0.79214    0.06315    0.31476    1.000
    Si4534   Si       0.75943    0.08479    0.29539    1.000
    N4535    N        0.77945    0.12270    0.28463    1.000
    N4536    N        0.81028    0.02098    0.24580    1.000
    N4537    N        0.78396    0.13990    0.34951    1.000
    Si4538   Si       0.78473    0.15817    0.30963    1.000
    Si4539   Si       0.79558    0.23171    0.36741    1.000
    N4540    N        0.80159    0.25529    0.33189    1.000
    N4541    N        0.77260    0.09824    0.41859    1.000
    N4542    N        0.77984    0.02854    0.42280    1.000
    N4543    N        0.81441    0.10444    0.47632    1.000
    Si4544   Si       0.76433    0.20465    0.48649    1.000
    N4545    N        0.76483    0.22278    0.44660    1.000
    Si4546   Si       0.79905    0.15824    0.38531    1.000
    N4547    N        0.76682    0.16335    0.41456    1.000
    N4548    N        0.75393    0.21949    0.37510    1.000
    N4549    N        0.77964    0.03151    0.53689    1.000
    Si4550   Si       0.78510    0.05159    0.57474    1.000
    N4551    N        0.77290    0.03228    0.61330    1.000
    N4552    N        0.79229    0.10815    0.61789    1.000
    N4553    N        0.79297    0.12762    0.54693    1.000
    Si4554   Si       0.78080    0.22382    0.55355    1.000
    N4555    N        0.77938    0.23621    0.51291    1.000
    Si4556   Si       0.78361    0.24792    0.61836    1.000
    Si4557   Si       0.80837    0.13577    0.50687    1.000
    N4558    N        0.77153    0.25666    0.57860    1.000
    N4559    N        0.79353    0.17452    0.49679    1.000
    N4560    N        0.80628    0.08499    0.68848    1.000
    N4561    N        0.80662    0.00967    0.66955    1.000
    N4562    N        0.79265    0.13112    0.74256    1.000
    N4563    N        0.75244    0.15141    0.65346    1.000
    N4564    N        0.78585    0.20096    0.69054    1.000
    Si4565   Si       0.78860    0.17393    0.65612    1.000
    N4566    N        0.77577    0.20415    0.62372    1.000
    N4567    N        0.76802    0.08459    0.78139    1.000
    N4568    N        0.76690    0.01451    0.76858    1.000
    N4569    N        0.75816    0.06961    0.85415    1.000
    Si4570   Si       0.80809    0.08169    0.79115    1.000
    Si4571   Si       0.79521    0.15178    0.82930    1.000
    N4572    N        0.77988    0.17315    0.79564    1.000
    N4573    N        0.78764    0.24069    0.79893    1.000
    N4574    N        0.76538    0.14755    0.86059    1.000
    Si4575   Si       0.75475    0.20984    0.79240    1.000
    Si4576   Si       0.80951    0.16522    0.76473    1.000
    Si4577   Si       0.76399    0.04802    0.96247    1.000
    Si4578   Si       0.76992    0.06865    0.89576    1.000
    Si4579   Si       0.77298    0.11491    0.98339    1.000
    N4580    N        0.78900    0.08380    0.95486    1.000
    N4581    N        0.79061    0.02555    0.98811    1.000
    N4582    N        0.75737    0.03681    0.92109    1.000
    Si4583   Si       0.76189    0.18332    0.96496    1.000
    N4584    N        0.79231    0.15161    0.97253    1.000
    Si4585   Si       0.77506    0.17325    0.89501    1.000
    N4586    N        0.78393    0.21776    0.95038    1.000
    Si4587   Si       0.77066    0.24423    0.91800    1.000
    N4588    N        0.76684    0.21448    0.88558    1.000
    Si4589   Si       0.77467    0.30096    0.02226    1.000
    N4590    N        0.77856    0.34444    0.01985    1.000
    N4591    N        0.80441    0.27533    0.04332    1.000
    Si4592   Si       0.76213    0.37756    0.04241    1.000
    N4593    N        0.79318    0.38333    0.07586    1.000
    N4594    N        0.80044    0.46920    0.05212    1.000
    N4595    N        0.76212    0.45339    0.10860    1.000
    Si4596   Si       0.76146    0.45933    0.06584    1.000
    Si4597   Si       0.80545    0.47644    0.00952    1.000
    Si4598   Si       0.78055    0.38349    0.11809    1.000
    N4599    N        0.78234    0.34210    0.12704    1.000
    N4600    N        0.78077    0.28921    0.16133    1.000
    Si4601   Si       0.79594    0.35298    0.21619    1.000
    N4602    N        0.76065    0.28699    0.23025    1.000
    Si4603   Si       0.76805    0.26356    0.19449    1.000
    N4604    N        0.75727    0.34871    0.19238    1.000
    Si4605   Si       0.75477    0.32382    0.15638    1.000
    N4606    N        0.79017    0.46272    0.23088    1.000
    Si4607   Si       0.79579    0.45568    0.13676    1.000
    N4608    N        0.78251    0.48201    0.16655    1.000
    N4609    N        0.80513    0.41277    0.14327    1.000
    N4610    N        0.78896    0.31266    0.29417    1.000
    Si4611   Si       0.78228    0.29374    0.33237    1.000
    Si4612   Si       0.79653    0.29520    0.25466    1.000
    N4613    N        0.78863    0.37744    0.31958    1.000
    N4614    N        0.77392    0.36947    0.24905    1.000
    N4615    N        0.81146    0.31968    0.35481    1.000
    N4616    N        0.77784    0.44428    0.34412    1.000
    Si4617   Si       0.79737    0.40565    0.35097    1.000
    Si4618   Si       0.78339    0.39473    0.28062    1.000
    N4619    N        0.77748    0.48570    0.29663    1.000
    Si4620   Si       0.80589    0.46412    0.27146    1.000
    N4621    N        0.75618    0.42789    0.27708    1.000
    N4622    N        0.79062    0.28315    0.46512    1.000
    Si4623   Si       0.77456    0.26219    0.43113    1.000
    N4624    N        0.80138    0.26370    0.39640    1.000
    Si4625   Si       0.78160    0.43215    0.48503    1.000
    Si4626   Si       0.78611    0.47083    0.37750    1.000
    N4627    N        0.77160    0.39076    0.38275    1.000
    N4628    N        0.76249    0.45491    0.41056    1.000
    Si4629   Si       0.76756    0.41214    0.42085    1.000
    N4630    N        0.77118    0.47316    0.48176    1.000
    N4631    N        0.80025    0.41497    0.44760    1.000
    Si4632   Si       0.77665    0.34634    0.51937    1.000
    N4633    N        0.77795    0.32683    0.60293    1.000
    N4634    N        0.79771    0.37184    0.54839    1.000
    N4635    N        0.76990    0.30671    0.53256    1.000
    Si4636   Si       0.76748    0.27626    0.50151    1.000
    Si4637   Si       0.75703    0.29790    0.57433    1.000
    Si4638   Si       0.81013    0.34349    0.58084    1.000
    Si4639   Si       0.78186    0.46663    0.58521    1.000
    N4640    N        0.79248    0.43130    0.60886    1.000
    N4641    N        0.80349    0.48241    0.55186    1.000
    N4642    N        0.77456    0.50290    0.60752    1.000
    Si4643   Si       0.76826    0.33670    0.64466    1.000
    Si4644   Si       0.77792    0.27844    0.68704    1.000
    N4645    N        0.77599    0.32078    0.68531    1.000
    N4646    N        0.76019    0.27060    0.64704    1.000
    Si4647   Si       0.76321    0.34845    0.71443    1.000
    N4648    N        0.77688    0.37858    0.65381    1.000
    N4649    N        0.75702    0.25723    0.71670    1.000
    Si4650   Si       0.78978    0.40840    0.68370    1.000
    N4651    N        0.78680    0.38445    0.72038    1.000
    Si4652   Si       0.76002    0.41215    0.63208    1.000
    N4653    N        0.79844    0.49452    0.68359    1.000
    Si4654   Si       0.75723    0.47849    0.68064    1.000
    N4655    N        0.76156    0.43787    0.66809    1.000
    N4656    N        0.79087    0.31338    0.81501    1.000
    Si4657   Si       0.78163    0.33668    0.85272    1.000
    Si4658   Si       0.79503    0.27305    0.82699    1.000
    Si4659   Si       0.79861    0.31695    0.77175    1.000
    N4660    N        0.76375    0.33214    0.75432    1.000
    N4661    N        0.75849    0.26983    0.85125    1.000
    N4662    N        0.75814    0.37150    0.84005    1.000
    N4663    N        0.79717    0.41779    0.78224    1.000
    N4664    N        0.76431    0.48785    0.80222    1.000
    N4665    N        0.78175    0.43558    0.84529    1.000
    Si4666   Si       0.79196    0.45278    0.80492    1.000
    N4667    N        0.77003    0.28789    0.98101    1.000
    N4668    N        0.80128    0.27492    0.91800    1.000
    N4669    N        0.79421    0.37172    0.95336    1.000
    Si4670   Si       0.80666    0.28781    0.95886    1.000
    Si4671   Si       0.81128    0.35506    0.99078    1.000
    Si4672   Si       0.81479    0.40444    0.93050    1.000
    Si4673   Si       0.79584    0.45199    0.88228    1.000
    N4674    N        0.79498    0.44365    0.92489    1.000
    N4675    N        0.77282    0.45687    0.98756    1.000
    Si4676   Si       0.77011    0.47297    0.94669    1.000
    N4677    N        0.76820    0.48718    0.88566    1.000
    Si4678   Si       0.79522    0.59139    0.06231    1.000
    N4679    N        0.77506    0.52885    0.11431    1.000
    N4680    N        0.75710    0.56681    0.06102    1.000
    N4681    N        0.80230    0.51943    0.00333    1.000
    N4682    N        0.78062    0.63110    0.07308    1.000
    Si4683   Si       0.78738    0.66700    0.04963    1.000
    Si4684   Si       0.79369    0.69044    0.11162    1.000
    N4685    N        0.81121    0.65996    0.01295    1.000
    N4686    N        0.80944    0.69449    0.07217    1.000
    Si4687   Si       0.75802    0.72561    0.01257    1.000
    N4688    N        0.77540    0.75462    0.04126    1.000
    N4689    N        0.77193    0.55319    0.17895    1.000
    N4690    N        0.76391    0.61272    0.14083    1.000
    Si4691   Si       0.76150    0.51828    0.15374    1.000
    N4692    N        0.77272    0.73672    0.20619    1.000
    Si4693   Si       0.79982    0.63182    0.15932    1.000
    N4694    N        0.78526    0.72606    0.13688    1.000
    N4695    N        0.80431    0.65122    0.23878    1.000
    N4696    N        0.77234    0.66718    0.17887    1.000
    Si4697   Si       0.76476    0.65002    0.21879    1.000
    Si4698   Si       0.78958    0.70889    0.17800    1.000
    N4699    N        0.79120    0.61997    0.31648    1.000
    Si4700   Si       0.77679    0.58171    0.30212    1.000
    Si4701   Si       0.78270    0.52091    0.32037    1.000
    N4702    N        0.78462    0.51335    0.36372    1.000
    N4703    N        0.75188    0.55125    0.32774    1.000
    N4704    N        0.80052    0.57590    0.24121    1.000
    Si4705   Si       0.75604    0.64334    0.32903    1.000
    N4706    N        0.76699    0.74759    0.31377    1.000
    N4707    N        0.79736    0.71211    0.27009    1.000
    N4708    N        0.77084    0.68198    0.34500    1.000
    Si4709   Si       0.80784    0.74047    0.30437    1.000
    Si4710   Si       0.80843    0.68836    0.36522    1.000
    Si4711   Si       0.76187    0.71830    0.24493    1.000
    Si4712   Si       0.76225    0.58661    0.43958    1.000
    Si4713   Si       0.80378    0.54254    0.39015    1.000
    N4714    N        0.79526    0.58204    0.46769    1.000
    N4715    N        0.76370    0.55853    0.40504    1.000
    N4716    N        0.77479    0.62688    0.42287    1.000
    Si4717   Si       0.76244    0.71321    0.41056    1.000
    N4718    N        0.79686    0.68901    0.40832    1.000
    Si4719   Si       0.80114    0.66134    0.44257    1.000
    N4720    N        0.79101    0.65400    0.48412    1.000
    Si4721   Si       0.77984    0.73607    0.47831    1.000
    Si4722   Si       0.79698    0.54122    0.60656    1.000
    Si4723   Si       0.76276    0.62207    0.56427    1.000
    N4724    N        0.76720    0.60064    0.52694    1.000
    N4725    N        0.79915    0.61710    0.58686    1.000
    Si4726   Si       0.80114    0.52472    0.53128    1.000
    N4727    N        0.76158    0.53333    0.51332    1.000
    N4728    N        0.80832    0.55021    0.56510    1.000
    Si4729   Si       0.80066    0.61232    0.49898    1.000
    N4730    N        0.75747    0.56027    0.61948    1.000
    N4731    N        0.77880    0.71902    0.51699    1.000
    Si4732   Si       0.76554    0.67771    0.51065    1.000
    Si4733   Si       0.77211    0.74973    0.54667    1.000
    N4734    N        0.78687    0.67948    0.61231    1.000
    N4735    N        0.76082    0.66307    0.55136    1.000
    Si4736   Si       0.75323    0.68759    0.58755    1.000
    N4737    N        0.75194    0.72954    0.57828    1.000
    N4738    N        0.76633    0.55194    0.69432    1.000
    N4739    N        0.77267    0.61562    0.66082    1.000
    Si4740   Si       0.80463    0.53864    0.67997    1.000
    N4741    N        0.80464    0.63233    0.71612    1.000
    N4742    N        0.78414    0.75059    0.63623    1.000
    N4743    N        0.78083    0.68856    0.67835    1.000
    Si4744   Si       0.79801    0.64690    0.67473    1.000
    Si4745   Si       0.79665    0.71023    0.64179    1.000
    Si4746   Si       0.76293    0.70584    0.71343    1.000
    Si4747   Si       0.76625    0.55959    0.84038    1.000
    N4748    N        0.78412    0.53075    0.75468    1.000
    N4749    N        0.80179    0.54182    0.82301    1.000
    Si4750   Si       0.79932    0.51332    0.79134    1.000
    Si4751   Si       0.78259    0.62137    0.75183    1.000
    N4752    N        0.80948    0.59542    0.77200    1.000
    N4753    N        0.75652    0.60130    0.83181    1.000
    Si4754   Si       0.77881    0.63751    0.82475    1.000
    N4755    N        0.77549    0.64929    0.78359    1.000
    N4756    N        0.77061    0.67189    0.84874    1.000
    N4757    N        0.78539    0.71026    0.74981    1.000
    N4758    N        0.75561    0.73969    0.85406    1.000
    Si4759   Si       0.79410    0.76039    0.84983    1.000
    Si4760   Si       0.75592    0.68506    0.77304    1.000
    Si4761   Si       0.79362    0.61529    0.93409    1.000
    Si4762   Si       0.78296    0.52352    0.90224    1.000
    N4763    N        0.76209    0.55518    0.88339    1.000
    N4764    N        0.76676    0.51667    0.94303    1.000
    Si4765   Si       0.79444    0.56024    0.99373    1.000
    N4766    N        0.80729    0.57941    0.95852    1.000
    Si4767   Si       0.78182    0.66842    0.98295    1.000
    N4768    N        0.77974    0.71239    0.97746    1.000
    Si4769   Si       0.80021    0.69281    0.87067    1.000
    N4770    N        0.78511    0.70479    0.90823    1.000
    Si4771   Si       0.78537    0.73340    0.94000    1.000
    N4772    N        0.80399    0.65601    0.94722    1.000
    N4773    N        0.77556    0.86174    0.08563    1.000
    N4774    N        0.77314    0.78669    0.10356    1.000
    Si4775   Si       0.76342    0.82958    0.11001    1.000
    Si4776   Si       0.81274    0.88056    0.07501    1.000
    Si4777   Si       0.79706    0.88418    0.99705    1.000
    Si4778   Si       0.80540    0.76306    0.12162    1.000
    N4779    N        0.75524    0.98824    0.05032    1.000
    N4780    N        0.79565    0.91950    0.08568    1.000
    N4781    N        0.79977    0.98830    0.10318    1.000
    Si4782   Si       0.80746    0.94907    0.11415    1.000
    Si4783   Si       0.75562    0.90539    0.09193    1.000
    Si4784   Si       0.78801    0.00465    0.02827    1.000
    Si4785   Si       0.79812    0.81319    0.18374    1.000
    N4786    N        0.77945    0.83771    0.15201    1.000
    N4787    N        0.76679    0.80766    0.21304    1.000
    Si4788   Si       0.76212    0.96094    0.17450    1.000
    Si4789   Si       0.78455    0.90260    0.23656    1.000
    N4790    N        0.77039    0.96565    0.21702    1.000
    N4791    N        0.79502    0.94092    0.15414    1.000
    N4792    N        0.77378    0.89059    0.19566    1.000
    Si4793   Si       0.81101    0.91169    0.18075    1.000
    N4794    N        0.78722    0.85243    0.34937    1.000
    N4795    N        0.79307    0.85990    0.24783    1.000
    N4796    N        0.75806    0.81399    0.28606    1.000
    Si4797   Si       0.75881    0.83276    0.24706    1.000
    Si4798   Si       0.75314    0.83578    0.32343    1.000
    N4799    N        0.77758    0.91985    0.33145    1.000
    Si4800   Si       0.79718    0.95829    0.32633    1.000
    N4801    N        0.77082    0.99086    0.33618    1.000
    Si4802   Si       0.79067    0.98439    0.25354    1.000
    Si4803   Si       0.77178    0.89045    0.36345    1.000
    N4804    N        0.75669    0.92144    0.26375    1.000
    Si4805   Si       0.81217    0.82258    0.36969    1.000
    N4806    N        0.78490    0.79709    0.39492    1.000
    N4807    N        0.78463    0.77677    0.46108    1.000
    Si4808   Si       0.77269    0.80472    0.49309    1.000
    Si4809   Si       0.80946    0.78185    0.42624    1.000
    Si4810   Si       0.74976    0.87971    0.48993    1.000
    Si4811   Si       0.78670    0.92099    0.43194    1.000
    N4812    N        0.79821    0.90624    0.39290    1.000
    N4813    N        0.75757    0.89205    0.44829    1.000
    Si4814   Si       0.77175    0.99503    0.44940    1.000
    N4815    N        0.80440    0.99099    0.47618    1.000
    N4816    N        0.76156    0.95698    0.42937    1.000
    Si4817   Si       0.78552    0.80768    0.58621    1.000
    N4818    N        0.78857    0.84367    0.56496    1.000
    N4819    N        0.80340    0.77305    0.56813    1.000
    Si4820   Si       0.80702    0.85467    0.52892    1.000
    N4821    N        0.80975    0.82238    0.50122    1.000
    N4822    N        0.78288    0.89012    0.51314    1.000
    Si4823   Si       0.77460    0.92300    0.54142    1.000
    Si4824   Si       0.79454    0.99314    0.51903    1.000
    N4825    N        0.76279    0.96359    0.52394    1.000
    N4826    N        0.80792    0.96672    0.61350    1.000
    N4827    N        0.79832    0.81542    0.62768    1.000
    N4828    N        0.76682    0.84942    0.68119    1.000
    Si4829   Si       0.78911    0.85405    0.64278    1.000
    Si4830   Si       0.80281    0.86189    0.70396    1.000
    Si4831   Si       0.80636    0.78860    0.72804    1.000
    N4832    N        0.76672    0.79007    0.74582    1.000
    N4833    N        0.78672    0.89722    0.63081    1.000
    Si4834   Si       0.78302    0.99613    0.63568    1.000
    N4835    N        0.76556    0.97243    0.71215    1.000
    Si4836   Si       0.80458    0.97616    0.69689    1.000
    N4837    N        0.77475    0.89228    0.72430    1.000
    N4838    N        0.79814    0.78476    0.81447    1.000
    N4839    N        0.79598    0.86552    0.85658    1.000
    Si4840   Si       0.76117    0.79231    0.78939    1.000
    Si4841   Si       0.76493    0.84041    0.84380    1.000
    N4842    N        0.75388    0.83404    0.80291    1.000
    N4843    N        0.76606    0.00039    0.83480    1.000
    N4844    N        0.77229    0.93273    0.84625    1.000
    N4845    N        0.76959    0.95472    0.77926    1.000
    Si4846   Si       0.78145    0.91494    0.75949    1.000
    Si4847   Si       0.78648    0.99094    0.79942    1.000
    Si4848   Si       0.77812    0.97092    0.86661    1.000
    Si4849   Si       0.76511    0.89590    0.86909    1.000
    N4850    N        0.75579    0.87404    0.98537    1.000
    Si4851   Si       0.76840    0.79629    0.90696    1.000
    N4852    N        0.80547    0.77657    0.88995    1.000
    N4853    N        0.76449    0.76924    0.94091    1.000
    N4854    N        0.78043    0.83604    0.92628    1.000
    N4855    N        0.75768    0.90265    0.91100    1.000
    N4856    N        0.78731    0.92667    0.99308    1.000
    N4857    N        0.81352    0.98607    0.88469    1.000
    N4858    N        0.84827    0.08950    0.02948    1.000
    Si4859   Si       0.82695    0.01797    0.08675    1.000
    N4860    N        0.86200    0.02641    0.00429    1.000
    N4861    N        0.84062    0.04767    0.11457    1.000
    Si4862   Si       0.86575    0.12650    0.04380    1.000
    N4863    N        0.83338    0.15338    0.05081    1.000
    Si4864   Si       0.83701    0.19447    0.04098    1.000
    N4865    N        0.82033    0.21579    0.07334    1.000
    Si4866   Si       0.81887    0.20481    0.11408    1.000
    Si4867   Si       0.86697    0.25813    0.11898    1.000
    Si4868   Si       0.85695    0.02504    0.14875    1.000
    N4869    N        0.82075    0.00966    0.16684    1.000
    N4870    N        0.86501    0.11176    0.13300    1.000
    Si4871   Si       0.83616    0.24130    0.22887    1.000
    Si4872   Si       0.83316    0.13808    0.14818    1.000
    N4873    N        0.85913    0.16043    0.17577    1.000
    N4874    N        0.85564    0.21779    0.13275    1.000
    Si4875   Si       0.86428    0.14788    0.21499    1.000
    N4876    N        0.84697    0.09464    0.27659    1.000
    Si4877   Si       0.83634    0.06883    0.31022    1.000
    Si4878   Si       0.85333    0.02099    0.25724    1.000
    N4879    N        0.85529    0.03099    0.30016    1.000
    Si4880   Si       0.81353    0.11628    0.25970    1.000
    N4881    N        0.81972    0.02595    0.36664    1.000
    N4882    N        0.86818    0.08050    0.33788    1.000
    N4883    N        0.86476    0.22883    0.32700    1.000
    Si4884   Si       0.85293    0.17885    0.27608    1.000
    Si4885   Si       0.85259    0.19003    0.34287    1.000
    N4886    N        0.82224    0.18081    0.30740    1.000
    N4887    N        0.86446    0.21147    0.24757    1.000
    N4888    N        0.83470    0.15160    0.24580    1.000
    Si4889   Si       0.83520    0.25444    0.30446    1.000
    Si4890   Si       0.82283    0.03435    0.40985    1.000
    Si4891   Si       0.84248    0.07127    0.47772    1.000
    N4892    N        0.84011    0.06763    0.43222    1.000
    Si4893   Si       0.81176    0.10454    0.43398    1.000
    N4894    N        0.81753    0.19530    0.37163    1.000
    Si4895   Si       0.86934    0.14806    0.40779    1.000
    N4896    N        0.82819    0.13554    0.40983    1.000
    N4897    N        0.82375    0.07161    0.57101    1.000
    N4898    N        0.85271    0.04922    0.51392    1.000
    Si4899   Si       0.86463    0.06250    0.55558    1.000
    Si4900   Si       0.81670    0.11300    0.58073    1.000
    Si4901   Si       0.86329    0.00614    0.51727    1.000
    N4902    N        0.85148    0.13394    0.59139    1.000
    N4903    N        0.85106    0.15005    0.50984    1.000
    Si4904   Si       0.84475    0.22493    0.58409    1.000
    Si4905   Si       0.83397    0.18947    0.51816    1.000
    N4906    N        0.81991    0.20415    0.55622    1.000
    N4907    N        0.86508    0.21480    0.49939    1.000
    N4908    N        0.86651    0.25358    0.55844    1.000
    N4909    N        0.82753    0.24918    0.61653    1.000
    Si4910   Si       0.81953    0.10462    0.65188    1.000
    Si4911   Si       0.82481    0.10741    0.72407    1.000
    N4912    N        0.84782    0.07107    0.64674    1.000
    N4913    N        0.85837    0.03499    0.70516    1.000
    Si4914   Si       0.82556    0.04794    0.67700    1.000
    N4915    N        0.86438    0.12516    0.70838    1.000
    Si4916   Si       0.86668    0.05241    0.74350    1.000
    N4917    N        0.85799    0.19857    0.68926    1.000
    Si4918   Si       0.82339    0.21935    0.70543    1.000
    N4919    N        0.82404    0.14805    0.66057    1.000
    Si4920   Si       0.86123    0.15710    0.67852    1.000
    N4921    N        0.82462    0.05006    0.81891    1.000
    Si4922   Si       0.83000    0.07898    0.85040    1.000
    Si4923   Si       0.85285    0.01781    0.81135    1.000
    N4924    N        0.83349    0.07795    0.75473    1.000
    N4925    N        0.81480    0.11241    0.82245    1.000
    N4926    N        0.87000    0.09960    0.84787    1.000
    Si4927   Si       0.85402    0.13520    0.82219    1.000
    N4928    N        0.86226    0.23369    0.79600    1.000
    N4929    N        0.84782    0.15106    0.77904    1.000
    N4930    N        0.83368    0.16793    0.84298    1.000
    Si4931   Si       0.82442    0.23975    0.77293    1.000
    Si4932   Si       0.86602    0.24683    0.83666    1.000
    N4933    N        0.81956    0.20381    0.74745    1.000
    N4934    N        0.85198    0.11742    0.93882    1.000
    N4935    N        0.83755    0.03887    0.93596    1.000
    Si4936   Si       0.82576    0.08125    0.93234    1.000
    Si4937   Si       0.83222    0.01981    0.97359    1.000
    N4938    N        0.81309    0.08022    0.89098    1.000
    N4939    N        0.85110    0.18876    0.96668    1.000
    Si4940   Si       0.82986    0.15620    0.94850    1.000
    Si4941   Si       0.85138    0.18146    0.87965    1.000
    N4942    N        0.81763    0.16809    0.90746    1.000
    Si4943   Si       0.82062    0.21826    0.97170    1.000
    N4944    N        0.84460    0.33831    0.06512    1.000
    Si4945   Si       0.83693    0.29547    0.06444    1.000
    N4946    N        0.83645    0.28664    0.10783    1.000
    N4947    N        0.86696    0.28156    0.03488    1.000
    Si4948   Si       0.83117    0.38058    0.05763    1.000
    Si4949   Si       0.86011    0.28795    0.99306    1.000
    N4950    N        0.82762    0.38616    0.01433    1.000
    Si4951   Si       0.83326    0.48151    0.07618    1.000
    N4952    N        0.83032    0.47364    0.11754    1.000
    N4953    N        0.86524    0.39674    0.07916    1.000
    N4954    N        0.84286    0.45611    0.00161    1.000
    Si4955   Si       0.85192    0.41456    0.99259    1.000
    N4956    N        0.85845    0.26930    0.20314    1.000
    N4957    N        0.81920    0.31927    0.22709    1.000
    N4958    N        0.83929    0.32699    0.16261    1.000
    Si4959   Si       0.85199    0.31251    0.20203    1.000
    Si4960   Si       0.81163    0.31023    0.13546    1.000
    Si4961   Si       0.83513    0.41425    0.17500    1.000
    N4962    N        0.84252    0.45664    0.18038    1.000
    Si4963   Si       0.86420    0.47209    0.14513    1.000
    Si4964   Si       0.81273    0.48249    0.19956    1.000
    N4965    N        0.81560    0.38864    0.20412    1.000
    N4966    N        0.84968    0.35652    0.29960    1.000
    N4967    N        0.86192    0.29118    0.31023    1.000
    N4968    N        0.82147    0.26115    0.26475    1.000
    Si4969   Si       0.81239    0.34238    0.31794    1.000
    Si4970   Si       0.85065    0.39997    0.30567    1.000
    N4971    N        0.83941    0.41293    0.34632    1.000
    N4972    N        0.83723    0.49560    0.27226    1.000
    N4973    N        0.81989    0.42155    0.28080    1.000
    Si4974   Si       0.85998    0.44365    0.36817    1.000
    N4975    N        0.83396    0.31743    0.42383    1.000
    Si4976   Si       0.83127    0.29493    0.38705    1.000
    Si4977   Si       0.82323    0.31140    0.46389    1.000
    N4978    N        0.85654    0.30009    0.49091    1.000
    Si4979   Si       0.84510    0.49168    0.41790    1.000
    N4980    N        0.84552    0.46933    0.45581    1.000
    N4981    N        0.82762    0.46553    0.38672    1.000
    Si4982   Si       0.85839    0.49817    0.48583    1.000
    Si4983   Si       0.83829    0.42736    0.46362    1.000
    N4984    N        0.84069    0.31710    0.56328    1.000
    Si4985   Si       0.84617    0.33169    0.52228    1.000
    N4986    N        0.83062    0.36944    0.60941    1.000
    N4987    N        0.86479    0.37151    0.52371    1.000
    Si4988   Si       0.86412    0.28883    0.58493    1.000
    N4989    N        0.81291    0.34293    0.49487    1.000
    N4990    N        0.86827    0.47649    0.52168    1.000
    Si4991   Si       0.82905    0.39538    0.53252    1.000
    Si4992   Si       0.83402    0.45565    0.53663    1.000
    N4993    N        0.84262    0.42304    0.56286    1.000
    Si4994   Si       0.83415    0.41347    0.60439    1.000
    N4995    N        0.82088    0.42917    0.50421    1.000
    N4996    N        0.85842    0.30394    0.62974    1.000
    Si4997   Si       0.84652    0.28267    0.72285    1.000
    Si4998   Si       0.84223    0.26850    0.65102    1.000
    Si4999   Si       0.86171    0.34827    0.63152    1.000
    N5000    N        0.82162    0.26257    0.69004    1.000
    N5001    N        0.86660    0.36888    0.67026    1.000
    N5002    N        0.86636    0.32024    0.72401    1.000
    N5003    N        0.85779    0.39608    0.74289    1.000
    N5004    N        0.86016    0.48732    0.65809    1.000
    Si5005   Si       0.86454    0.41064    0.67003    1.000
    N5006    N        0.82799    0.42939    0.68521    1.000
    Si5007   Si       0.83533    0.47241    0.68814    1.000
    N5008    N        0.85160    0.48885    0.72518    1.000
    N5009    N        0.86630    0.42774    0.62951    1.000
    N5010    N        0.83184    0.27002    0.84804    1.000
    N5011    N        0.82578    0.35045    0.76817    1.000
    N5012    N        0.82066    0.27986    0.75692    1.000
    Si5013   Si       0.86628    0.35435    0.75462    1.000
    N5014    N        0.86510    0.38254    0.84248    1.000
    N5015    N        0.82614    0.48081    0.80098    1.000
    Si5016   Si       0.86529    0.48363    0.81973    1.000
    Si5017   Si       0.85880    0.42580    0.86174    1.000
    Si5018   Si       0.81493    0.38893    0.75571    1.000
    N5019    N        0.81768    0.33341    0.87522    1.000
    Si5020   Si       0.82778    0.29057    0.88719    1.000
    N5021    N        0.83110    0.31885    0.97984    1.000
    Si5022   Si       0.84744    0.36379    0.87815    1.000
    N5023    N        0.86772    0.29026    0.90439    1.000
    N5024    N        0.83646    0.25860    0.97197    1.000
    N5025    N        0.83680    0.46552    0.87099    1.000
    N5026    N        0.85205    0.40570    0.95202    1.000
    Si5027   Si       0.85191    0.50221    0.88628    1.000
    N5028    N        0.82892    0.40248    0.89033    1.000
    N5029    N        0.83718    0.52515    0.07372    1.000
    Si5030   Si       0.85067    0.54595    0.03695    1.000
    N5031    N        0.82332    0.58442    0.09542    1.000
    Si5032   Si       0.81697    0.54268    0.10899    1.000
    Si5033   Si       0.86716    0.58945    0.09112    1.000
    N5034    N        0.81764    0.57479    0.02828    1.000
    N5035    N        0.84075    0.73178    0.02434    1.000
    Si5036   Si       0.85071    0.70538    0.06134    1.000
    Si5037   Si       0.85387    0.65992    0.00340    1.000
    N5038    N        0.87152    0.69420    0.10116    1.000
    N5039    N        0.86364    0.61592    0.23457    1.000
    N5040    N        0.82315    0.52322    0.21078    1.000
    N5041    N        0.82431    0.60602    0.18581    1.000
    Si5042   Si       0.82055    0.61285    0.22963    1.000
    N5043    N        0.83451    0.54512    0.14773    1.000
    Si5044   Si       0.81502    0.55994    0.18401    1.000
    N5045    N        0.86081    0.70909    0.24270    1.000
    Si5046   Si       0.86615    0.72076    0.20255    1.000
    Si5047   Si       0.86010    0.65812    0.12384    1.000
    N5048    N        0.83098    0.70500    0.18362    1.000
    N5049    N        0.81780    0.65908    0.13082    1.000
    Si5050   Si       0.84509    0.56107    0.32634    1.000
    N5051    N        0.85936    0.59958    0.31741    1.000
    Si5052   Si       0.82529    0.54134    0.25531    1.000
    N5053    N        0.82902    0.56752    0.36626    1.000
    N5054    N        0.80979    0.55008    0.30083    1.000
    Si5055   Si       0.83312    0.63352    0.32284    1.000
    Si5056   Si       0.82977    0.68196    0.25774    1.000
    N5057    N        0.84570    0.66884    0.29712    1.000
    N5058    N        0.83129    0.65209    0.36182    1.000
    N5059    N        0.82109    0.72445    0.34442    1.000
    Si5060   Si       0.84469    0.75570    0.36395    1.000
    Si5061   Si       0.87462    0.73928    0.27116    1.000
    N5062    N        0.86471    0.57869    0.45568    1.000
    N5063    N        0.82473    0.52821    0.42532    1.000
    Si5064   Si       0.82746    0.55538    0.46000    1.000
    N5065    N        0.83488    0.75326    0.40579    1.000
    N5066    N        0.81845    0.71965    0.46316    1.000
    N5067    N        0.84072    0.64660    0.43482    1.000
    Si5068   Si       0.84845    0.71935    0.43112    1.000
    N5069    N        0.86943    0.69733    0.40033    1.000
    Si5070   Si       0.86233    0.65430    0.39470    1.000
    N5071    N        0.83235    0.60965    0.52645    1.000
    Si5072   Si       0.82668    0.59027    0.56434    1.000
    N5073    N        0.86659    0.58800    0.58195    1.000
    N5074    N        0.82644    0.52714    0.49452    1.000
    N5075    N        0.85381    0.66196    0.58533    1.000
    N5076    N        0.85471    0.72794    0.57741    1.000
    Si5077   Si       0.81763    0.65008    0.60811    1.000
    N5078    N        0.86464    0.69083    0.52051    1.000
    Si5079   Si       0.84803    0.72307    0.49519    1.000
    N5080    N        0.82624    0.54111    0.63868    1.000
    N5081    N        0.83417    0.55624    0.70748    1.000
    Si5082   Si       0.86694    0.52871    0.64509    1.000
    N5083    N        0.87099    0.61574    0.69908    1.000
    Si5084   Si       0.86344    0.73418    0.61872    1.000
    Si5085   Si       0.85873    0.69824    0.68285    1.000
    Si5086   Si       0.84679    0.63969    0.72705    1.000
    N5087    N        0.83815    0.75897    0.74212    1.000
    N5088    N        0.84354    0.68339    0.71977    1.000
    N5089    N        0.83855    0.71297    0.64835    1.000
    N5090    N        0.83359    0.64594    0.65048    1.000
    Si5091   Si       0.83884    0.61016    0.79954    1.000
    N5092    N        0.84587    0.53983    0.77630    1.000
    Si5093   Si       0.84644    0.54950    0.82093    1.000
    Si5094   Si       0.81566    0.55807    0.74913    1.000
    N5095    N        0.86933    0.51785    0.84604    1.000
    N5096    N        0.86930    0.58693    0.82302    1.000
    N5097    N        0.82172    0.62925    0.83401    1.000
    N5098    N        0.86178    0.62813    0.76731    1.000
    Si5099   Si       0.87246    0.51704    0.74969    1.000
    N5100    N        0.85249    0.71458    0.78299    1.000
    Si5101   Si       0.85532    0.72116    0.82580    1.000
    N5102    N        0.81754    0.72361    0.84566    1.000
    Si5103   Si       0.82955    0.71616    0.74721    1.000
    Si5104   Si       0.86539    0.75866    0.77558    1.000
    Si5105   Si       0.83986    0.62934    0.87297    1.000
    N5106    N        0.82212    0.60240    0.90269    1.000
    N5107    N        0.82628    0.53276    0.90402    1.000
    Si5108   Si       0.83549    0.56861    0.92610    1.000
    N5109    N        0.87222    0.62179    0.99736    1.000
    N5110    N        0.86216    0.68334    0.96657    1.000
    N5111    N        0.83041    0.73192    0.93937    1.000
    N5112    N        0.83765    0.67169    0.88849    1.000
    Si5113   Si       0.82766    0.68717    0.92884    1.000
    Si5114   Si       0.85091    0.72475    0.97940    1.000
    N5115    N        0.84709    0.79561    0.03121    1.000
    N5116    N        0.84683    0.86867    0.09822    1.000
    Si5117   Si       0.81798    0.76364    0.04549    1.000
    N5118    N        0.82128    0.87619    0.03308    1.000
    Si5119   Si       0.87486    0.77234    0.09383    1.000
    N5120    N        0.83303    0.76102    0.08744    1.000
    N5121    N        0.82125    0.97654    0.02377    1.000
    N5122    N        0.86292    0.99926    0.07288    1.000
    Si5123   Si       0.86265    0.99239    0.03112    1.000
    N5124    N        0.85020    0.94050    0.11344    1.000
    Si5125   Si       0.83454    0.84679    0.24387    1.000
    N5126    N        0.82049    0.78618    0.15552    1.000
    Si5127   Si       0.86294    0.78867    0.16582    1.000
    N5128    N        0.83380    0.82773    0.20493    1.000
    Si5129   Si       0.86248    0.85672    0.18659    1.000
    N5130    N        0.87275    0.86932    0.22834    1.000
    N5131    N        0.87732    0.82859    0.15451    1.000
    N5132    N        0.87537    0.76366    0.19886    1.000
    N5133    N        0.82328    0.92059    0.22290    1.000
    N5134    N        0.84519    0.88893    0.16300    1.000
    Si5135   Si       0.86327    0.91206    0.23820    1.000
    Si5136   Si       0.86096    0.90048    0.12507    1.000
    N5137    N        0.84528    0.83652    0.28559    1.000
    N5138    N        0.83286    0.79292    0.34515    1.000
    Si5139   Si       0.85486    0.79860    0.30713    1.000
    Si5140   Si       0.85993    0.87625    0.30028    1.000
    N5141    N        0.84039    0.76339    0.28606    1.000
    N5142    N        0.84706    0.88601    0.34184    1.000
    Si5143   Si       0.85720    0.95804    0.28556    1.000
    N5144    N        0.83200    0.95577    0.35483    1.000
    N5145    N        0.85934    0.91592    0.28099    1.000
    N5146    N        0.86784    0.98282    0.25141    1.000
    N5147    N        0.81324    0.96639    0.28653    1.000
    N5148    N        0.84221    0.84033    0.39412    1.000
    N5149    N        0.84344    0.80233    0.44847    1.000
    Si5150   Si       0.86150    0.83730    0.43300    1.000
    N5151    N        0.86385    0.86827    0.46382    1.000
    Si5152   Si       0.84657    0.79975    0.49115    1.000
    Si5153   Si       0.86995    0.86650    0.37280    1.000
    N5154    N        0.82551    0.93379    0.44801    1.000
    Si5155   Si       0.83431    0.91525    0.37213    1.000
    N5156    N        0.86724    0.90286    0.39746    1.000
    Si5157   Si       0.83799    0.97725    0.45358    1.000
    Si5158   Si       0.86126    0.91210    0.45875    1.000
    Si5159   Si       0.84821    0.99248    0.37088    1.000
    N5160    N        0.84189    0.99327    0.41454    1.000
    N5161    N        0.84941    0.86419    0.53377    1.000
    Si5162   Si       0.84343    0.76346    0.55697    1.000
    N5163    N        0.84190    0.76200    0.51328    1.000
    Si5164   Si       0.85196    0.90732    0.54020    1.000
    Si5165   Si       0.82973    0.96410    0.57641    1.000
    N5166    N        0.83240    0.98867    0.54091    1.000
    N5167    N        0.81474    0.92679    0.55850    1.000
    N5168    N        0.86677    0.92244    0.50086    1.000
    N5169    N        0.85273    0.77545    0.62488    1.000
    N5170    N        0.82695    0.86353    0.66775    1.000
    Si5171   Si       0.85984    0.77270    0.70498    1.000
    Si5172   Si       0.86286    0.87434    0.64610    1.000
    N5173    N        0.81955    0.78020    0.68728    1.000
    N5174    N        0.82181    0.83302    0.72989    1.000
    Si5175   Si       0.81372    0.78053    0.64461    1.000
    N5176    N        0.85410    0.91150    0.62622    1.000
    N5177    N        0.82126    0.94170    0.67534    1.000
    N5178    N        0.83766    0.97086    0.72731    1.000
    Si5179   Si       0.81523    0.93021    0.63541    1.000
    Si5180   Si       0.86126    0.94906    0.69439    1.000
    N5181    N        0.84816    0.82081    0.84924    1.000
    N5182    N        0.82799    0.84746    0.79382    1.000
    Si5183   Si       0.83915    0.85947    0.86265    1.000
    Si5184   Si       0.85389    0.84212    0.75798    1.000
    Si5185   Si       0.83565    0.80798    0.80822    1.000
    N5186    N        0.86074    0.76428    0.82000    1.000
    N5187    N        0.86891    0.80532    0.77563    1.000
    Si5188   Si       0.84150    0.88858    0.79703    1.000
    N5189    N        0.85871    0.88991    0.83596    1.000
    N5190    N        0.82275    0.91699    0.77287    1.000
    N5191    N        0.82843    0.98239    0.80022    1.000
    Si5192   Si       0.84279    0.95550    0.77036    1.000
    N5193    N        0.83836    0.79950    0.94396    1.000
    N5194    N        0.82647    0.86553    0.96954    1.000
    Si5195   Si       0.84118    0.76772    0.91406    1.000
    N5196    N        0.85153    0.85895    0.90472    1.000
    Si5197   Si       0.82439    0.83988    0.93555    1.000
    Si5198   Si       0.86175    0.87936    0.98976    1.000
    Si5199   Si       0.83812    0.99795    0.91677    1.000
    Si5200   Si       0.82171    0.95113    0.98943    1.000
    N5201    N        0.83065    0.97855    0.95567    1.000
    N5202    N        0.85835    0.92443    0.99080    1.000
    N5203    N        0.91083    0.06377    0.05169    1.000
    Si5204   Si       0.87978    0.06294    0.01892    1.000
    N5205    N        0.89484    0.12404    0.07456    1.000
    Si5206   Si       0.90740    0.12624    0.11763    1.000
    Si5207   Si       0.89208    0.24633    0.04356    1.000
    N5208    N        0.88412    0.14410    0.00885    1.000
    N5209    N        0.89462    0.24766    0.08593    1.000
    N5210    N        0.87431    0.21057    0.02514    1.000
    Si5211   Si       0.90696    0.04206    0.20286    1.000
    N5212    N        0.88136    0.05311    0.17131    1.000
    Si5213   Si       0.87998    0.09690    0.16944    1.000
    N5214    N        0.92051    0.11246    0.16060    1.000
    N5215    N        0.88288    0.04541    0.23789    1.000
    N5216    N        0.87257    0.10585    0.21235    1.000
    N5217    N        0.90217    0.15989    0.23611    1.000
    N5218    N        0.89916    0.21441    0.18649    1.000
    Si5219   Si       0.90210    0.20197    0.22888    1.000
    Si5220   Si       0.88317    0.19036    0.15327    1.000
    N5221    N        0.91271    0.17178    0.12592    1.000
    Si5222   Si       0.88911    0.04023    0.32787    1.000
    Si5223   Si       0.90021    0.10188    0.35726    1.000
    N5224    N        0.92034    0.09865    0.26488    1.000
    Si5225   Si       0.88046    0.08733    0.24996    1.000
    N5226    N        0.88652    0.01248    0.36096    1.000
    N5227    N        0.92407    0.03547    0.30244    1.000
    N5228    N        0.92763    0.06604    0.36231    1.000
    N5229    N        0.92679    0.13347    0.34330    1.000
    N5230    N        0.88122    0.16455    0.30555    1.000
    Si5231   Si       0.92302    0.16520    0.31354    1.000
    N5232    N        0.88201    0.09403    0.47346    1.000
    Si5233   Si       0.88487    0.07719    0.42882    1.000
    N5234    N        0.88773    0.10938    0.39901    1.000
    N5235    N        0.90846    0.04174    0.42827    1.000
    Si5236   Si       0.91783    0.03001    0.38743    1.000
    Si5237   Si       0.88867    0.20537    0.46532    1.000
    N5238    N        0.87872    0.17751    0.37645    1.000
    Si5239   Si       0.91552    0.20036    0.37799    1.000
    N5240    N        0.88158    0.16554    0.44768    1.000
    N5241    N        0.92716    0.24028    0.39400    1.000
    N5242    N        0.87481    0.23311    0.43527    1.000
    Si5243   Si       0.88368    0.13830    0.48292    1.000
    N5244    N        0.90133    0.08543    0.54599    1.000
    Si5245   Si       0.91275    0.08643    0.50441    1.000
    N5246    N        0.87743    0.04031    0.58995    1.000
    N5247    N        0.91186    0.09240    0.61430    1.000
    N5248    N        0.89960    0.00929    0.53930    1.000
    N5249    N        0.92564    0.13006    0.49770    1.000
    N5250    N        0.92344    0.15860    0.59057    1.000
    N5251    N        0.87666    0.20107    0.59721    1.000
    N5252    N        0.92008    0.20820    0.53736    1.000
    Si5253   Si       0.88101    0.15977    0.60867    1.000
    Si5254   Si       0.89133    0.23800    0.52548    1.000
    Si5255   Si       0.91700    0.19962    0.57928    1.000
    Si5256   Si       0.92313    0.12083    0.64369    1.000
    N5257    N        0.90327    0.07265    0.73796    1.000
    Si5258   Si       0.88539    0.05886    0.62848    1.000
    Si5259   Si       0.90537    0.11122    0.71651    1.000
    N5260    N        0.90999    0.03858    0.65870    1.000
    Si5261   Si       0.89270    0.01534    0.68923    1.000
    N5262    N        0.92788    0.09994    0.68052    1.000
    Si5263   Si       0.88947    0.22871    0.69537    1.000
    N5264    N        0.89057    0.14873    0.64863    1.000
    N5265    N        0.87296    0.24893    0.73020    1.000
    N5266    N        0.88331    0.25406    0.66114    1.000
    Si5267   Si       0.91146    0.08947    0.84962    1.000
    Si5268   Si       0.92433    0.03235    0.82147    1.000
    N5269    N        0.91617    0.07419    0.80500    1.000
    N5270    N        0.91613    0.12990    0.75501    1.000
    N5271    N        0.88666    0.01109    0.83731    1.000
    N5272    N        0.87221    0.02150    0.77396    1.000
    N5273    N        0.89390    0.15881    0.81873    1.000
    Si5274   Si       0.89311    0.23139    0.76481    1.000
    Si5275   Si       0.89110    0.15852    0.77544    1.000
    Si5276   Si       0.91665    0.15904    0.85918    1.000
    N5277    N        0.90769    0.19213    0.75436    1.000
    N5278    N        0.90350    0.07859    0.98612    1.000
    N5279    N        0.91277    0.09211    0.90378    1.000
    Si5280   Si       0.89329    0.12448    0.92304    1.000
    Si5281   Si       0.91439    0.11866    0.99119    1.000
    N5282    N        0.92532    0.03457    0.94127    1.000
    N5283    N        0.92107    0.13954    0.95425    1.000
    Si5284   Si       0.88747    0.18426    0.99406    1.000
    N5285    N        0.91610    0.24517    0.91948    1.000
    N5286    N        0.92790    0.19975    0.98670    1.000
    N5287    N        0.88651    0.15687    0.89297    1.000
    Si5288   Si       0.91263    0.23166    0.87711    1.000
    N5289    N        0.87131    0.21807    0.87080    1.000
    Si5290   Si       0.87981    0.35524    0.08488    1.000
    N5291    N        0.91476    0.35132    0.05905    1.000
    Si5292   Si       0.92745    0.25994    0.11092    1.000
    Si5293   Si       0.92009    0.38986    0.04108    1.000
    Si5294   Si       0.88967    0.43172    0.08720    1.000
    N5295    N        0.89135    0.40311    0.01244    1.000
    Si5296   Si       0.87879    0.47231    0.02011    1.000
    N5297    N        0.91685    0.45989    0.00202    1.000
    N5298    N        0.87155    0.46179    0.06175    1.000
    N5299    N        0.92713    0.41936    0.07020    1.000
    N5300    N        0.89636    0.35067    0.12350    1.000
    N5301    N        0.89154    0.33174    0.19541    1.000
    N5302    N        0.89998    0.27172    0.14276    1.000
    Si5303   Si       0.87570    0.35350    0.16141    1.000
    Si5304   Si       0.89433    0.25753    0.18209    1.000
    N5305    N        0.92450    0.44895    0.19110    1.000
    Si5306   Si       0.91846    0.49127    0.18713    1.000
    N5307    N        0.88768    0.50597    0.16032    1.000
    N5308    N        0.89211    0.44468    0.12828    1.000
    Si5309   Si       0.91018    0.42097    0.16012    1.000
    N5310    N        0.87375    0.39624    0.17083    1.000
    Si5311   Si       0.88189    0.32779    0.29985    1.000
    N5312    N        0.90728    0.34044    0.33326    1.000
    N5313    N        0.91811    0.31304    0.27854    1.000
    Si5314   Si       0.88458    0.26854    0.33885    1.000
    N5315    N        0.92829    0.26877    0.32899    1.000
    Si5316   Si       0.92786    0.35380    0.36939    1.000
    N5317    N        0.90868    0.48748    0.28253    1.000
    N5318    N        0.88990    0.41622    0.29885    1.000
    Si5319   Si       0.91031    0.45215    0.31015    1.000
    N5320    N        0.88976    0.46521    0.34484    1.000
    Si5321   Si       0.89489    0.50498    0.35721    1.000
    N5322    N        0.91321    0.29053    0.44236    1.000
    N5323    N        0.90470    0.35283    0.40572    1.000
    Si5324   Si       0.89963    0.29986    0.48301    1.000
    N5325    N        0.91070    0.34186    0.47657    1.000
    Si5326   Si       0.89591    0.26295    0.41332    1.000
    N5327    N        0.87188    0.27918    0.37942    1.000
    Si5328   Si       0.92831    0.33246    0.43698    1.000
    N5329    N        0.91366    0.46270    0.45661    1.000
    N5330    N        0.88426    0.49673    0.40021    1.000
    N5331    N        0.87225    0.39823    0.46238    1.000
    Si5332   Si       0.90675    0.46198    0.41351    1.000
    N5333    N        0.88252    0.42673    0.40169    1.000
    Si5334   Si       0.89288    0.39091    0.42467    1.000
    N5335    N        0.90564    0.28499    0.59698    1.000
    N5336    N        0.91486    0.27326    0.51425    1.000
    N5337    N        0.89748    0.36171    0.61113    1.000
    Si5338   Si       0.89493    0.37717    0.49285    1.000
    Si5339   Si       0.90294    0.48076    0.54495    1.000
    N5340    N        0.90891    0.46376    0.58524    1.000
    N5341    N        0.92778    0.40215    0.50943    1.000
    Si5342   Si       0.90218    0.28914    0.63874    1.000
    N5343    N        0.91495    0.31978    0.66548    1.000
    N5344    N        0.91116    0.36574    0.72600    1.000
    Si5345   Si       0.89029    0.34124    0.69493    1.000
    Si5346   Si       0.89170    0.46843    0.62891    1.000
    N5347    N        0.90127    0.42285    0.69102    1.000
    Si5348   Si       0.89897    0.40592    0.73212    1.000
    Si5349   Si       0.90241    0.36337    0.82512    1.000
    N5350    N        0.89187    0.34522    0.78852    1.000
    N5351    N        0.91251    0.32970    0.85220    1.000
    N5352    N        0.90675    0.26212    0.84428    1.000
    N5353    N        0.92833    0.25570    0.77243    1.000
    N5354    N        0.88107    0.44439    0.82446    1.000
    N5355    N        0.89086    0.49572    0.78451    1.000
    Si5356   Si       0.91904    0.43428    0.80406    1.000
    N5357    N        0.92394    0.43093    0.75901    1.000
    N5358    N        0.92855    0.39676    0.82400    1.000
    Si5359   Si       0.90233    0.28513    0.92958    1.000
    N5360    N        0.89643    0.29174    0.97243    1.000
    Si5361   Si       0.91803    0.34460    0.89249    1.000
    N5362    N        0.88130    0.35834    0.90673    1.000
    N5363    N        0.92091    0.39964    0.95102    1.000
    N5364    N        0.88904    0.42966    0.89621    1.000
    Si5365   Si       0.91391    0.46359    0.90143    1.000
    N5366    N        0.88586    0.49864    0.91324    1.000
    Si5367   Si       0.92581    0.41881    0.98959    1.000
    Si5368   Si       0.88445    0.39745    0.92637    1.000
    Si5369   Si       0.89942    0.60208    0.02727    1.000
    N5370    N        0.87965    0.57387    0.05214    1.000
    Si5371   Si       0.91201    0.53384    0.99989    1.000
    N5372    N        0.92774    0.62932    0.04518    1.000
    N5373    N        0.89546    0.56880    0.11925    1.000
    N5374    N        0.87646    0.63175    0.09108    1.000
    N5375    N        0.87522    0.51604    0.01442    1.000
    Si5376   Si       0.90010    0.65797    0.06511    1.000
    Si5377   Si       0.91058    0.71536    0.09514    1.000
    N5378    N        0.89134    0.74336    0.06565    1.000
    N5379    N        0.87304    0.67502    0.03855    1.000
    N5380    N        0.91605    0.51792    0.22221    1.000
    Si5381   Si       0.87762    0.54868    0.15294    1.000
    N5382    N        0.88581    0.57202    0.18917    1.000
    Si5383   Si       0.89650    0.55613    0.22930    1.000
    Si5384   Si       0.90512    0.62441    0.24605    1.000
    Si5385   Si       0.86906    0.61304    0.19028    1.000
    Si5386   Si       0.91381    0.73954    0.15782    1.000
    N5387    N        0.89871    0.70584    0.17714    1.000
    Si5388   Si       0.91055    0.66415    0.17162    1.000
    N5389    N        0.87816    0.64130    0.15752    1.000
    N5390    N        0.91495    0.63818    0.20627    1.000
    Si5391   Si       0.87416    0.51332    0.28661    1.000
    N5392    N        0.87468    0.52899    0.32648    1.000
    N5393    N        0.86790    0.54896    0.26113    1.000
    N5394    N        0.92553    0.58435    0.24825    1.000
    Si5395   Si       0.88809    0.67682    0.30474    1.000
    N5396    N        0.90921    0.65156    0.27847    1.000
    N5397    N        0.89949    0.67028    0.34724    1.000
    N5398    N        0.89385    0.71922    0.30381    1.000
    N5399    N        0.88569    0.74747    0.35842    1.000
    Si5400   Si       0.91051    0.75537    0.32278    1.000
    Si5401   Si       0.89949    0.71045    0.37226    1.000
    N5402    N        0.90930    0.75859    0.25565    1.000
    Si5403   Si       0.87272    0.61986    0.44743    1.000
    N5404    N        0.89443    0.52151    0.47631    1.000
    Si5405   Si       0.89828    0.56460    0.47950    1.000
    N5406    N        0.89358    0.62635    0.40787    1.000
    Si5407   Si       0.93121    0.60928    0.39496    1.000
    N5408    N        0.88620    0.63850    0.48441    1.000
    N5409    N        0.88112    0.71679    0.46606    1.000
    Si5410   Si       0.89563    0.68013    0.49051    1.000
    Si5411   Si       0.91774    0.73755    0.47678    1.000
    N5412    N        0.90785    0.52101    0.55972    1.000
    Si5413   Si       0.89695    0.56213    0.56171    1.000
    N5414    N        0.88737    0.57439    0.52040    1.000
    Si5415   Si       0.88226    0.62977    0.58805    1.000
    Si5416   Si       0.87578    0.61859    0.52113    1.000
    N5417    N        0.90621    0.63247    0.55043    1.000
    N5418    N        0.91825    0.70197    0.56716    1.000
    Si5419   Si       0.87442    0.69263    0.56193    1.000
    N5420    N        0.91338    0.75487    0.51580    1.000
    N5421    N        0.90242    0.51476    0.62340    1.000
    N5422    N        0.89186    0.55769    0.66416    1.000
    N5423    N        0.89739    0.54639    0.73003    1.000
    N5424    N        0.90004    0.63169    0.62791    1.000
    Si5425   Si       0.87625    0.57194    0.70103    1.000
    Si5426   Si       0.87424    0.63958    0.66255    1.000
    N5427    N        0.87958    0.73726    0.69601    1.000
    Si5428   Si       0.91636    0.72362    0.67861    1.000
    N5429    N        0.89541    0.67640    0.67822    1.000
    N5430    N        0.90452    0.73147    0.63329    1.000
    Si5431   Si       0.91123    0.52311    0.85456    1.000
    Si5432   Si       0.90381    0.61353    0.83686    1.000
    Si5433   Si       0.90642    0.62454    0.77123    1.000
    N5434    N        0.88569    0.63312    0.87082    1.000
    N5435    N        0.90957    0.64650    0.80864    1.000
    N5436    N        0.88655    0.70277    0.84533    1.000
    Si5437   Si       0.92229    0.68454    0.82582    1.000
    N5438    N        0.90771    0.75387    0.76429    1.000
    Si5439   Si       0.90335    0.53918    0.92391    1.000
    Si5440   Si       0.89304    0.60076    0.96467    1.000
    N5441    N        0.92073    0.55293    0.88487    1.000
    N5442    N        0.87641    0.57102    0.93692    1.000
    N5443    N        0.92362    0.52367    0.95919    1.000
    N5444    N        0.91638    0.57820    0.99418    1.000
    N5445    N        0.91479    0.63434    0.95029    1.000
    Si5446   Si       0.88134    0.67576    0.87939    1.000
    Si5447   Si       0.92868    0.74276    0.96704    1.000
    N5448    N        0.88915    0.74494    0.98438    1.000
    N5449    N        0.90763    0.69212    0.91283    1.000
    Si5450   Si       0.90349    0.67662    0.95185    1.000
    N5451    N        0.90897    0.79317    0.02820    1.000
    N5452    N        0.88767    0.85822    0.01989    1.000
    N5453    N        0.88438    0.81413    0.08584    1.000
    Si5454   Si       0.88027    0.82203    0.04185    1.000
    Si5455   Si       0.88174    0.84449    0.11490    1.000
    Si5456   Si       0.88013    0.76010    0.02663    1.000
    Si5457   Si       0.92553    0.86683    0.99696    1.000
    Si5458   Si       0.87994    0.96994    0.10120    1.000
    N5459    N        0.89870    0.96860    0.02619    1.000
    N5460    N        0.91413    0.94282    0.08952    1.000
    N5461    N        0.92965    0.91045    0.00124    1.000
    Si5462   Si       0.92915    0.96613    0.05644    1.000
    N5463    N        0.90241    0.88352    0.12193    1.000
    N5464    N        0.88339    0.76390    0.13484    1.000
    N5465    N        0.91575    0.81806    0.22462    1.000
    Si5466   Si       0.91230    0.77721    0.21744    1.000
    Si5467   Si       0.91790    0.85969    0.22615    1.000
    N5468    N        0.92676    0.87985    0.18748    1.000
    N5469    N        0.91510    0.94045    0.15672    1.000
    Si5470   Si       0.92734    0.92318    0.19303    1.000
    N5471    N        0.89895    0.93378    0.22444    1.000
    Si5472   Si       0.91877    0.98417    0.15913    1.000
    Si5473   Si       0.92823    0.91772    0.12154    1.000
    N5474    N        0.91348    0.99823    0.19930    1.000
    Si5475   Si       0.90643    0.97478    0.23454    1.000
    N5476    N        0.88447    0.99431    0.13578    1.000
    N5477    N        0.89772    0.79600    0.31322    1.000
    Si5478   Si       0.91786    0.83063    0.32579    1.000
    N5479    N        0.90126    0.86626    0.30273    1.000
    N5480    N        0.90765    0.84653    0.36532    1.000
    N5481    N        0.89254    0.96720    0.30694    1.000
    Si5482   Si       0.91766    0.93968    0.32797    1.000
    Si5483   Si       0.92958    0.99297    0.29810    1.000
    N5484    N        0.90483    0.82715    0.42659    1.000
    Si5485   Si       0.92179    0.80917    0.46092    1.000
    Si5486   Si       0.93297    0.84633    0.39901    1.000
    N5487    N        0.87076    0.98536    0.48024    1.000
    Si5488   Si       0.90193    0.95629    0.48389    1.000
    N5489    N        0.89933    0.93285    0.44770    1.000
    Si5490   Si       0.90579    0.91867    0.40744    1.000
    N5491    N        0.91880    0.94081    0.37101    1.000
    Si5492   Si       0.90434    0.79439    0.53083    1.000
    N5493    N        0.91626    0.87271    0.51808    1.000
    Si5494   Si       0.88024    0.80319    0.60521    1.000
    Si5495   Si       0.87852    0.85727    0.50246    1.000
    N5496    N        0.87514    0.84376    0.61904    1.000
    N5497    N        0.87438    0.79410    0.56180    1.000
    N5498    N        0.89028    0.81456    0.49450    1.000
    N5499    N        0.91977    0.79883    0.62265    1.000
    N5500    N        0.92793    0.94440    0.51635    1.000
    Si5501   Si       0.88509    0.93053    0.60491    1.000
    N5502    N        0.88662    0.91085    0.56529    1.000
    Si5503   Si       0.92218    0.90852    0.54031    1.000
    Si5504   Si       0.89754    0.00232    0.58190    1.000
    N5505    N        0.87166    0.97017    0.59131    1.000
    Si5506   Si       0.92079    0.84085    0.63856    1.000
    N5507    N        0.90134    0.87113    0.66725    1.000
    N5508    N        0.89163    0.80137    0.71441    1.000
    N5509    N        0.91555    0.99809    0.72364    1.000
    N5510    N        0.92343    0.93375    0.62431    1.000
    N5511    N        0.88636    0.91937    0.70887    1.000
    Si5512   Si       0.92043    0.89408    0.69631    1.000
    N5513    N        0.88442    0.97655    0.66829    1.000
    Si5514   Si       0.92104    0.97184    0.64388    1.000
    N5515    N        0.91548    0.79313    0.85247    1.000
    Si5516   Si       0.91184    0.79862    0.75692    1.000
    Si5517   Si       0.87437    0.78817    0.85385    1.000
    N5518    N        0.87479    0.87790    0.76531    1.000
    Si5519   Si       0.89787    0.90313    0.84536    1.000
    N5520    N        0.90634    0.94649    0.84591    1.000
    Si5521   Si       0.90460    0.99034    0.76703    1.000
    N5522    N        0.88642    0.95044    0.77025    1.000
    Si5523   Si       0.89462    0.91215    0.74973    1.000
    Si5524   Si       0.89822    0.98292    0.86812    1.000
    N5525    N        0.92861    0.89636    0.81548    1.000
    N5526    N        0.87592    0.76435    0.88970    1.000
    Si5527   Si       0.91884    0.76606    0.89219    1.000
    Si5528   Si       0.89334    0.86660    0.91761    1.000
    N5529    N        0.92532    0.83494    0.91217    1.000
    N5530    N        0.89652    0.87398    0.96014    1.000
    N5531    N        0.92139    0.96660    0.96397    1.000
    Si5532   Si       0.89993    0.94033    0.99260    1.000
    N5533    N        0.87778    0.98928    0.90750    1.000
    Si5534   Si       0.91574    0.99257    0.92926    1.000
    N5535    N        0.91025    0.88802    0.88425    1.000
    Si5536   Si       0.94428    0.03616    0.04934    1.000
    N5537    N        0.94717    0.10971    0.10362    1.000
    N5538    N        0.94514    0.11774    0.02354    1.000
    N5539    N        0.94388    0.02139    0.00796    1.000
    N5540    N        0.97355    0.06682    0.05601    1.000
    Si5541   Si       0.98349    0.11356    0.00306    1.000
    Si5542   Si       0.93455    0.09856    0.06385    1.000
    Si5543   Si       0.94905    0.19028    0.10527    1.000
    Si5544   Si       0.94645    0.21392    0.02414    1.000
    N5545    N        0.94104    0.19762    0.06322    1.000
    N5546    N        0.92859    0.25278    0.02402    1.000
    Si5547   Si       0.98470    0.12232    0.12211    1.000
    N5548    N        0.94784    0.05932    0.20302    1.000
    Si5549   Si       0.95168    0.10038    0.18714    1.000
    Si5550   Si       0.98572    0.04210    0.21889    1.000
    N5551    N        0.96305    0.12894    0.21988    1.000
    N5552    N        0.98410    0.16771    0.11586    1.000
    Si5553   Si       0.95904    0.24581    0.21680    1.000
    N5554    N        0.94166    0.21364    0.24024    1.000
    N5555    N        0.95626    0.23066    0.12258    1.000
    N5556    N        0.97008    0.09314    0.31558    1.000
    Si5557   Si       0.96750    0.08399    0.35907    1.000
    Si5558   Si       0.94941    0.06942    0.28559    1.000
    N5559    N        0.98190    0.05149    0.26216    1.000
    Si5560   Si       0.98320    0.13495    0.30834    1.000
    Si5561   Si       0.93510    0.13591    0.25133    1.000
    N5562    N        0.95490    0.15821    0.28494    1.000
    Si5563   Si       0.97355    0.19555    0.26621    1.000
    Si5564   Si       0.95662    0.23496    0.33196    1.000
    N5565    N        0.98023    0.22827    0.29404    1.000
    N5566    N        0.93026    0.19962    0.33776    1.000
    Si5567   Si       0.95797    0.14894    0.37104    1.000
    N5568    N        0.98056    0.03732    0.43641    1.000
    Si5569   Si       0.94235    0.02711    0.45516    1.000
    N5570    N        0.96764    0.11348    0.39234    1.000
    Si5571   Si       0.95988    0.18594    0.44113    1.000
    N5572    N        0.97676    0.14803    0.45402    1.000
    Si5573   Si       0.96836    0.24185    0.40078    1.000
    N5574    N        0.94527    0.17716    0.40094    1.000
    N5575    N        0.93325    0.20407    0.47186    1.000
    N5576    N        0.96997    0.10736    0.57706    1.000
    N5577    N        0.94828    0.04380    0.57013    1.000
    Si5578   Si       0.96612    0.02295    0.60652    1.000
    Si5579   Si       0.93938    0.02552    0.53144    1.000
    Si5580   Si       0.93371    0.08517    0.57728    1.000
    N5581    N        0.98519    0.10082    0.51085    1.000
    N5582    N        0.93317    0.04989    0.49418    1.000
    Si5583   Si       0.96815    0.13682    0.49502    1.000
    Si5584   Si       0.95471    0.20384    0.51179    1.000
    N5585    N        0.94683    0.22589    0.59534    1.000
    Si5586   Si       0.96393    0.14624    0.59484    1.000
    N5587    N        0.98199    0.17081    0.51833    1.000
    N5588    N        0.98012    0.23900    0.51353    1.000
    Si5589   Si       0.98547    0.21247    0.60708    1.000
    N5590    N        0.96736    0.03999    0.70003    1.000
    N5591    N        0.97356    0.05525    0.63415    1.000
    Si5592   Si       0.94740    0.06117    0.66901    1.000
    Si5593   Si       0.94185    0.18751    0.72700    1.000
    N5594    N        0.96300    0.15379    0.71035    1.000
    N5595    N        0.96196    0.14198    0.63908    1.000
    Si5596   Si       0.98789    0.13886    0.67487    1.000
    Si5597   Si       0.95755    0.24037    0.66883    1.000
    N5598    N        0.98665    0.21291    0.65130    1.000
    N5599    N        0.93102    0.21706    0.69461    1.000
    Si5600   Si       0.97941    0.05857    0.85936    1.000
    N5601    N        0.93774    0.12386    0.84965    1.000
    Si5602   Si       0.97660    0.12764    0.82944    1.000
    N5603    N        0.93493    0.05119    0.85951    1.000
    N5604    N        0.97031    0.09262    0.74604    1.000
    Si5605   Si       0.92948    0.09092    0.76878    1.000
    Si5606   Si       0.98110    0.13578    0.74643    1.000
    Si5607   Si       0.98054    0.19969    0.85714    1.000
    N5608    N        0.98255    0.14580    0.78930    1.000
    N5609    N        0.97394    0.20398    0.75282    1.000
    N5610    N        0.93753    0.19655    0.86236    1.000
    Si5611   Si       0.93508    0.05629    0.90256    1.000
    Si5612   Si       0.93740    0.05299    0.97805    1.000
    N5613    N        0.97167    0.08165    0.97343    1.000
    N5614    N        0.97710    0.06815    0.90375    1.000
    Si5615   Si       0.94163    0.22964    0.95249    1.000
    N5616    N        0.96816    0.19639    0.93617    1.000
    Si5617   Si       0.95241    0.16831    0.96404    1.000
    N5618    N        0.96071    0.31398    0.01995    1.000
    N5619    N        0.94907    0.29043    0.08960    1.000
    Si5620   Si       0.94989    0.32439    0.06098    1.000
    N5621    N        0.97120    0.34722    0.09800    1.000
    Si5622   Si       0.93618    0.28652    0.99736    1.000
    Si5623   Si       0.97283    0.30750    0.12211    1.000
    Si5624   Si       0.95450    0.48201    0.00853    1.000
    N5625    N        0.95435    0.39645    0.01351    1.000
    Si5626   Si       0.96802    0.43391    0.07381    1.000
    N5627    N        0.97555    0.46091    0.04104    1.000
    N5628    N        0.97296    0.45321    0.11267    1.000
    Si5629   Si       0.96807    0.49444    0.11898    1.000
    Si5630   Si       0.94057    0.35919    0.12738    1.000
    N5631    N        0.95482    0.33472    0.22582    1.000
    N5632    N        0.95048    0.32535    0.15489    1.000
    Si5633   Si       0.98457    0.36804    0.22791    1.000
    Si5634   Si       0.93170    0.31604    0.19324    1.000
    N5635    N        0.93000    0.27335    0.20198    1.000
    N5636    N        0.95233    0.50367    0.16113    1.000
    N5637    N        0.96427    0.40680    0.22914    1.000
    Si5638   Si       0.96185    0.44466    0.21040    1.000
    N5639    N        0.94284    0.39876    0.14360    1.000
    Si5640   Si       0.97977    0.42410    0.14215    1.000
    N5641    N        0.97105    0.47869    0.23542    1.000
    Si5642   Si       0.94157    0.30924    0.32144    1.000
    Si5643   Si       0.95632    0.30702    0.25763    1.000
    N5644    N        0.98064    0.30350    0.29742    1.000
    N5645    N        0.97166    0.37468    0.30746    1.000
    N5646    N        0.95638    0.31975    0.36651    1.000
    N5647    N        0.98158    0.27243    0.24333    1.000
    N5648    N        0.95170    0.44689    0.32475    1.000
    Si5649   Si       0.95655    0.47537    0.35806    1.000
    Si5650   Si       0.96988    0.40809    0.33338    1.000
    Si5651   Si       0.93866    0.50381    0.25708    1.000
    N5652    N        0.94835    0.39194    0.36752    1.000
    Si5653   Si       0.98462    0.31433    0.39769    1.000
    N5654    N        0.96890    0.34513    0.42698    1.000
    N5655    N        0.97353    0.30924    0.49713    1.000
    N5656    N        0.98740    0.27737    0.42078    1.000
    N5657    N        0.97561    0.44904    0.47326    1.000
    N5658    N        0.93222    0.40392    0.43766    1.000
    N5659    N        0.94581    0.45396    0.39512    1.000
    Si5660   Si       0.93623    0.42927    0.47384    1.000
    Si5661   Si       0.95802    0.41314    0.40448    1.000
    Si5662   Si       0.92983    0.49775    0.47872    1.000
    N5663    N        0.96915    0.29005    0.56239    1.000
    Si5664   Si       0.95868    0.27715    0.52069    1.000
    Si5665   Si       0.94658    0.26991    0.59497    1.000
    N5666    N        0.95878    0.33795    0.61211    1.000
    N5667    N        0.97468    0.35753    0.54470    1.000
    Si5668   Si       0.97998    0.33042    0.57619    1.000
    Si5669   Si       0.93738    0.37613    0.61635    1.000
    N5670    N        0.93514    0.47810    0.51779    1.000
    N5671    N        0.94206    0.40361    0.58327    1.000
    Si5672   Si       0.95634    0.39646    0.54285    1.000
    Si5673   Si       0.94816    0.44380    0.59878    1.000
    Si5674   Si       0.97394    0.47166    0.53516    1.000
    N5675    N        0.96744    0.48039    0.57819    1.000
    N5676    N        0.98395    0.42955    0.53481    1.000
    N5677    N        0.95854    0.31305    0.73734    1.000
    Si5678   Si       0.95164    0.35618    0.73950    1.000
    Si5679   Si       0.95379    0.31761    0.64816    1.000
    N5680    N        0.95007    0.27438    0.63951    1.000
    N5681    N        0.97950    0.26099    0.70152    1.000
    N5682    N        0.98163    0.37808    0.71652    1.000
    N5683    N        0.98679    0.32767    0.67309    1.000
    Si5684   Si       0.95520    0.45832    0.74419    1.000
    Si5685   Si       0.93941    0.42853    0.67379    1.000
    Si5686   Si       0.98133    0.49161    0.68472    1.000
    N5687    N        0.96256    0.45615    0.69946    1.000
    N5688    N        0.93217    0.45560    0.64119    1.000
    N5689    N        0.95089    0.38907    0.65586    1.000
    N5690    N        0.95717    0.30887    0.80583    1.000
    Si5691   Si       0.95725    0.28568    0.77104    1.000
    N5692    N        0.97077    0.37117    0.77752    1.000
    N5693    N        0.96539    0.27664    0.86499    1.000
    Si5694   Si       0.93558    0.29314    0.83913    1.000
    Si5695   Si       0.96083    0.39512    0.85335    1.000
    N5696    N        0.94878    0.46863    0.80596    1.000
    Si5697   Si       0.96659    0.47193    0.84489    1.000
    N5698    N        0.98106    0.43253    0.86250    1.000
    Si5699   Si       0.93216    0.50439    0.78770    1.000
    N5700    N        0.94751    0.50366    0.74818    1.000
    N5701    N        0.93048    0.48632    0.86702    1.000
    N5702    N        0.95842    0.26883    0.96325    1.000
    Si5703   Si       0.97123    0.30125    0.93918    1.000
    N5704    N        0.93444    0.31512    0.91983    1.000
    N5705    N        0.94259    0.38108    0.88856    1.000
    Si5706   Si       0.95121    0.40546    0.92428    1.000
    N5707    N        0.98445    0.47434    0.97921    1.000
    N5708    N        0.94925    0.44889    0.92157    1.000
    Si5709   Si       0.98105    0.47385    0.93606    1.000
    N5710    N        0.95730    0.57972    0.07539    1.000
    Si5711   Si       0.96264    0.53888    0.05785    1.000
    N5712    N        0.94276    0.51926    0.02556    1.000
    Si5713   Si       0.93792    0.56224    0.11141    1.000
    N5714    N        0.94505    0.52085    0.09478    1.000
    Si5715   Si       0.96612    0.62203    0.06600    1.000
    N5716    N        0.97445    0.63062    0.10899    1.000
    Si5717   Si       0.96178    0.67184    0.11294    1.000
    N5718    N        0.93177    0.68001    0.08404    1.000
    N5719    N        0.96737    0.57121    0.14263    1.000
    Si5720   Si       0.98163    0.53391    0.16171    1.000
    N5721    N        0.93987    0.73065    0.12400    1.000
    N5722    N        0.97415    0.69204    0.22005    1.000
    Si5723   Si       0.98346    0.73548    0.12569    1.000
    Si5724   Si       0.98161    0.69115    0.17851    1.000
    N5725    N        0.95064    0.67347    0.15468    1.000
    Si5726   Si       0.96536    0.57795    0.26156    1.000
    N5727    N        0.96745    0.53364    0.26340    1.000
    N5728    N        0.94476    0.59179    0.35502    1.000
    Si5729   Si       0.97838    0.60948    0.33655    1.000
    N5730    N        0.93755    0.51409    0.36056    1.000
    N5731    N        0.98564    0.59536    0.29721    1.000
    N5732    N        0.97173    0.65376    0.32863    1.000
    Si5733   Si       0.94277    0.66844    0.35842    1.000
    Si5734   Si       0.97268    0.73777    0.36848    1.000
    N5735    N        0.95312    0.75409    0.33015    1.000
    Si5736   Si       0.94939    0.55268    0.37301    1.000
    Si5737   Si       0.96779    0.60906    0.48152    1.000
    Si5738   Si       0.96210    0.55621    0.44058    1.000
    N5739    N        0.96312    0.51807    0.46127    1.000
    N5740    N        0.93519    0.58188    0.47027    1.000
    N5741    N        0.93040    0.56693    0.40969    1.000
    N5742    N        0.98715    0.54600    0.39791    1.000
    N5743    N        0.93459    0.69877    0.49810    1.000
    N5744    N        0.95607    0.64439    0.39330    1.000
    N5745    N        0.97106    0.64850    0.46017    1.000
    N5746    N        0.97780    0.70640    0.43980    1.000
    N5747    N        0.94282    0.70733    0.37572    1.000
    Si5748   Si       0.97324    0.68703    0.48009    1.000
    Si5749   Si       0.97623    0.75213    0.43822    1.000
    Si5750   Si       0.98242    0.66774    0.41875    1.000
    Si5751   Si       0.96849    0.57751    0.60439    1.000
    N5752    N        0.97486    0.61455    0.52418    1.000
    N5753    N        0.96757    0.62325    0.59509    1.000
    Si5754   Si       0.94588    0.61532    0.55457    1.000
    N5755    N        0.95997    0.53508    0.61370    1.000
    N5756    N        0.93568    0.57637    0.57192    1.000
    Si5757   Si       0.93264    0.50737    0.59330    1.000
    Si5758   Si       0.95214    0.70044    0.59458    1.000
    N5759    N        0.97639    0.74210    0.53606    1.000
    N5760    N        0.96548    0.74210    0.60468    1.000
    Si5761   Si       0.93714    0.72332    0.53412    1.000
    N5762    N        0.98569    0.68370    0.56932    1.000
    N5763    N        0.95266    0.52461    0.68187    1.000
    N5764    N        0.95807    0.58069    0.71913    1.000
    Si5765   Si       0.97110    0.59853    0.68321    1.000
    N5766    N        0.95057    0.58692    0.64563    1.000
    Si5767   Si       0.94097    0.53854    0.72149    1.000
    Si5768   Si       0.93376    0.54592    0.64828    1.000
    Si5769   Si       0.94504    0.63302    0.63519    1.000
    N5770    N        0.95798    0.67591    0.62865    1.000
    N5771    N        0.94241    0.70720    0.71425    1.000
    N5772    N        0.95856    0.64064    0.67826    1.000
    N5773    N        0.93254    0.64232    0.73979    1.000
    Si5774   Si       0.93224    0.66373    0.70303    1.000
    Si5775   Si       0.95346    0.57252    0.81263    1.000
    N5776    N        0.94524    0.60080    0.84567    1.000
    N5777    N        0.92992    0.53642    0.81699    1.000
    Si5778   Si       0.96107    0.61061    0.75031    1.000
    N5779    N        0.93551    0.59347    0.77988    1.000
    Si5780   Si       0.96782    0.63666    0.85569    1.000
    N5781    N        0.94673    0.70180    0.79533    1.000
    N5782    N        0.94613    0.67410    0.85830    1.000
    Si5783   Si       0.93747    0.72331    0.75652    1.000
    N5784    N        0.98317    0.73417    0.75802    1.000
    Si5785   Si       0.98904    0.71375    0.79671    1.000
    Si5786   Si       0.98632    0.75659    0.85978    1.000
    Si5787   Si       0.95300    0.62138    0.94012    1.000
    Si5788   Si       0.95516    0.58087    0.88821    1.000
    N5789    N        0.95301    0.57804    0.93283    1.000
    Si5790   Si       0.96307    0.54151    0.95260    1.000
    N5791    N        0.96810    0.62800    0.89949    1.000
    N5792    N        0.97344    0.51387    0.92016    1.000
    N5793    N        0.93685    0.69948    0.97167    1.000
    N5794    N        0.98088    0.64405    0.96734    1.000
    N5795    N        0.95089    0.74121    0.87772    1.000
    N5796    N        0.98135    0.69203    0.91537    1.000
    Si5797   Si       0.94632    0.70034    0.89222    1.000
    Si5798   Si       0.97822    0.68848    0.96113    1.000
    Si5799   Si       0.94790    0.79772    0.01491    1.000
    N5800    N        0.96196    0.86873    0.03247    1.000
    N5801    N        0.97751    0.80438    0.04394    1.000
    N5802    N        0.95930    0.76137    0.99275    1.000
    Si5803   Si       0.97114    0.91014    0.01861    1.000
    N5804    N        0.96301    0.95775    0.03137    1.000
    Si5805   Si       0.97367    0.99636    0.10489    1.000
    N5806    N        0.93922    0.00421    0.07765    1.000
    N5807    N        0.98812    0.86356    0.18890    1.000
    Si5808   Si       0.98208    0.76375    0.19105    1.000
    N5809    N        0.96382    0.83650    0.12912    1.000
    Si5810   Si       0.95703    0.86870    0.15721    1.000
    N5811    N        0.93932    0.76255    0.18594    1.000
    Si5812   Si       0.98970    0.86590    0.23273    1.000
    N5813    N        0.96707    0.90645    0.13543    1.000
    N5814    N        0.96020    0.99064    0.14723    1.000
    Si5815   Si       0.98600    0.97293    0.17914    1.000
    Si5816   Si       0.97953    0.96437    0.24050    1.000
    N5817    N        0.96466    0.94369    0.20349    1.000
    N5818    N        0.95738    0.84473    0.31934    1.000
    Si5819   Si       0.94321    0.87673    0.29235    1.000
    N5820    N        0.95056    0.87155    0.25062    1.000
    N5821    N        0.95468    0.97042    0.32831    1.000
    N5822    N        0.94709    0.91445    0.31199    1.000
    N5823    N        0.94109    0.97817    0.25968    1.000
    Si5824   Si       0.98323    0.93800    0.30923    1.000
    N5825    N        0.97280    0.83214    0.40746    1.000
    N5826    N        0.95580    0.83549    0.47123    1.000
    N5827    N        0.93751    0.76828    0.45196    1.000
    N5828    N        0.97938    0.76855    0.39705    1.000
    Si5829   Si       0.98895    0.84860    0.44654    1.000
    N5830    N        0.93884    0.98570    0.46994    1.000
    N5831    N        0.93731    0.88931    0.40874    1.000
    N5832    N        0.95212    0.00517    0.38729    1.000
    Si5833   Si       0.97785    0.90168    0.40526    1.000
    N5834    N        0.98079    0.94443    0.40204    1.000
    Si5835   Si       0.95518    0.96462    0.37300    1.000
    Si5836   Si       0.95279    0.84682    0.51439    1.000
    Si5837   Si       0.97722    0.78555    0.54267    1.000
    N5838    N        0.94308    0.81203    0.53688    1.000
    N5839    N        0.98582    0.87462    0.51851    1.000
    N5840    N        0.95714    0.91106    0.56679    1.000
    Si5841   Si       0.95625    0.90964    0.60961    1.000
    Si5842   Si       0.96264    0.96990    0.50089    1.000
    N5843    N        0.97513    0.00272    0.52531    1.000
    N5844    N        0.93083    0.99764    0.60912    1.000
    Si5845   Si       0.98813    0.91482    0.53561    1.000
    N5846    N        0.95250    0.86810    0.62240    1.000
    Si5847   Si       0.97673    0.85823    0.66279    1.000
    N5848    N        0.94818    0.82836    0.67221    1.000
    N5849    N        0.95124    0.79159    0.73369    1.000
    Si5850   Si       0.93683    0.76059    0.63067    1.000
    Si5851   Si       0.92988    0.79588    0.69460    1.000
    N5852    N        0.94375    0.76066    0.67290    1.000
    N5853    N        0.95694    0.97548    0.66984    1.000
    N5854    N        0.98371    0.98142    0.73614    1.000
    Si5855   Si       0.97992    0.88996    0.72877    1.000
    N5856    N        0.93335    0.89434    0.74123    1.000
    N5857    N        0.96437    0.89401    0.68586    1.000
    Si5858   Si       0.95612    0.99744    0.70697    1.000
    Si5859   Si       0.94556    0.80913    0.82535    1.000
    N5860    N        0.96338    0.84193    0.84871    1.000
    N5861    N        0.97951    0.78300    0.82407    1.000
    Si5862   Si       0.93877    0.87052    0.78260    1.000
    N5863    N        0.98308    0.87736    0.77322    1.000
    N5864    N        0.93156    0.82681    0.78671    1.000
    N5865    N        0.97417    0.94501    0.79489    1.000
    Si5866   Si       0.97891    0.98542    0.77877    1.000
    Si5867   Si       0.94686    0.93780    0.82747    1.000
    N5868    N        0.97267    0.94566    0.86281    1.000
    N5869    N        0.93940    0.00199    0.79155    1.000
    Si5870   Si       0.94524    0.86087    0.88278    1.000
    N5871    N        0.94417    0.82738    0.98170    1.000
    Si5872   Si       0.94837    0.81172    0.94132    1.000
    N5873    N        0.99082    0.81522    0.93193    1.000
    N5874    N        0.93209    0.77182    0.93301    1.000
    N5875    N        0.98051    0.88011    0.89771    1.000
    N5876    N        0.99095    0.98275    0.97582    1.000
    N5877    N        0.93673    0.99257    0.89005    1.000
    Si5878   Si       0.97770    0.98474    0.88081    1.000
    Si5879   Si       0.95208    0.97930    0.99390    1.000
