# CIF file generated by openbabel 3.1.1, see https://openbabel.org
data_I
_chemical_name_common '3.01-73.aims'
_cell_length_a 39.9085
_cell_length_b 39.9085
_cell_length_c 39.9085
_cell_angle_alpha 90
_cell_angle_beta 90
_cell_angle_gamma 90
loop_
    _atom_site_label
    _atom_site_type_symbol
    _atom_site_fract_x
    _atom_site_fract_y
    _atom_site_fract_z
    _atom_site_occupancy
    Si0      Si       0.03126    0.04610    0.04329    1.000
    N1       N        0.03785    0.07531    0.01435    1.000
    N2       N        0.00045    0.06036    0.06922    1.000
    N3       N        0.03142    0.12526    0.06412    1.000
    Si4      Si       0.99372    0.10290    0.07425    1.000
    N5       N        0.01508    0.00821    0.02774    1.000
    Si6      Si       0.04905    0.11500    0.02358    1.000
    N7       N        0.01926    0.23502    0.04395    1.000
    Si8      Si       0.03782    0.16195    0.08587    1.000
    N9       N        0.99806    0.18218    0.08131    1.000
    Si10     Si       0.01933    0.23537    0.99968    1.000
    N11      N        0.00861    0.02684    0.12544    1.000
    N12      N        0.99343    0.10642    0.22886    1.000
    N13      N        0.02825    0.11738    0.17964    1.000
    N14      N        0.02551    0.04967    0.18832    1.000
    Si15     Si       0.00001    0.08399    0.19124    1.000
    Si16     Si       0.00723    0.01257    0.16597    1.000
    N17      N        0.99048    0.17015    0.20711    1.000
    N18      N        0.04659    0.20135    0.19391    1.000
    Si19     Si       0.99723    0.25391    0.12392    1.000
    Si20     Si       0.03992    0.20056    0.15007    1.000
    Si21     Si       0.04017    0.24388    0.20915    1.000
    Si22     Si       0.02055    0.13929    0.21448    1.000
    N23      N        0.00102    0.21974    0.15001    1.000
    N24      N        0.99717    0.24575    0.21550    1.000
    N25      N        0.03285    0.16129    0.12973    1.000
    Si26     Si       0.03139    0.03661    0.34752    1.000
    Si27     Si       0.03496    0.05407    0.27896    1.000
    N28      N        0.04120    0.06764    0.31930    1.000
    N29      N        0.04142    0.11698    0.36516    1.000
    N30      N        0.00013    0.01498    0.32703    1.000
    N31      N        0.99116    0.05399    0.27469    1.000
    N32      N        0.04021    0.24002    0.32081    1.000
    Si33     Si       0.02582    0.22296    0.28226    1.000
    N34      N        0.01670    0.18043    0.28105    1.000
    Si35     Si       0.04037    0.21940    0.35808    1.000
    N36      N        0.99199    0.25001    0.28336    1.000
    N37      N        0.99675    0.21776    0.36656    1.000
    N38      N        0.00645    0.10201    0.42725    1.000
    N39      N        0.01423    0.04863    0.38558    1.000
    Si40     Si       0.01286    0.01885    0.41855    1.000
    N41      N        0.01427    0.04157    0.45601    1.000
    Si42     Si       0.00767    0.09203    0.38417    1.000
    Si43     Si       0.04276    0.02488    0.48818    1.000
    Si44     Si       0.00233    0.24657    0.47082    1.000
    Si45     Si       0.00290    0.14537    0.42868    1.000
    N46      N        0.04025    0.16423    0.41777    1.000
    N47      N        0.03454    0.22969    0.44440    1.000
    N48      N        0.01545    0.08691    0.54999    1.000
    N49      N        0.02406    0.02704    0.53196    1.000
    N50      N        0.03037    0.03536    0.60354    1.000
    Si51     Si       0.03581    0.05203    0.56352    1.000
    Si52     Si       0.02825    0.12906    0.55039    1.000
    N53      N        0.00417    0.14945    0.51992    1.000
    N54      N        0.00967    0.14662    0.58521    1.000
    N55      N        0.01030    0.22172    0.60386    1.000
    Si56     Si       0.02924    0.24330    0.57217    1.000
    Si57     Si       0.01918    0.18762    0.51001    1.000
    Si58     Si       0.01734    0.18039    0.61155    1.000
    N59      N        0.03665    0.21627    0.53841    1.000
    Si60     Si       0.99770    0.02480    0.62860    1.000
    Si61     Si       0.00526    0.04102    0.70473    1.000
    N62      N        0.03489    0.11433    0.73264    1.000
    N63      N        0.00048    0.05022    0.66330    1.000
    N64      N        0.02545    0.13426    0.66182    1.000
    Si65     Si       0.98702    0.15337    0.67201    1.000
    Si66     Si       0.03950    0.14767    0.70512    1.000
    N67      N        0.00606    0.17336    0.70625    1.000
    N68      N        0.00440    0.23952    0.73155    1.000
    Si69     Si       0.04332    0.25370    0.72556    1.000
    N70      N        0.01927    0.10319    0.85490    1.000
    N71      N        0.01193    0.03913    0.84740    1.000
    Si72     Si       0.01204    0.11913    0.81595    1.000
    N73      N        0.00079    0.08751    0.78820    1.000
    N74      N        0.99545    0.01643    0.78322    1.000
    Si75     Si       0.04390    0.06884    0.85566    1.000
    Si76     Si       0.99568    0.10420    0.74562    1.000
    N77      N        0.01359    0.22956    0.82311    1.000
    Si78     Si       0.00880    0.23436    0.77872    1.000
    Si79     Si       0.04576    0.21985    0.84956    1.000
    Si80     Si       0.98916    0.17425    0.86127    1.000
    N81      N        0.03819    0.13061    0.91758    1.000
    Si82     Si       0.02099    0.07136    0.97540    1.000
    N83      N        0.00799    0.03130    0.96535    1.000
    Si84     Si       0.00300    0.11466    0.89369    1.000
    N85      N        0.02657    0.13962    0.99496    1.000
    N86      N        0.02865    0.18683    0.87261    1.000
    Si87     Si       0.02995    0.17136    0.96751    1.000
    N88      N        0.00161    0.19840    0.98386    1.000
    N89      N        0.00403    0.33653    0.10389    1.000
    N90      N        0.03374    0.29755    0.03094    1.000
    N91      N        0.03562    0.36460    0.04934    1.000
    Si92     Si       0.99585    0.35982    0.06806    1.000
    N93      N        0.03347    0.26773    0.10551    1.000
    Si94     Si       0.03842    0.26790    0.06144    1.000
    N95      N        0.00341    0.46118    0.04563    1.000
    Si96     Si       0.02586    0.40774    0.10060    1.000
    Si97     Si       0.04592    0.45402    0.04161    1.000
    Si98     Si       0.98904    0.50009    0.04768    1.000
    N99      N        0.01554    0.33791    0.17647    1.000
    Si100    Si       0.00487    0.32744    0.22049    1.000
    Si101    Si       0.03747    0.37548    0.19316    1.000
    N102     N        0.03869    0.30059    0.22222    1.000
    N103     N        0.01580    0.36756    0.22967    1.000
    Si104    Si       0.98760    0.32724    0.14447    1.000
    N105     N        0.01872    0.48141    0.18286    1.000
    N106     N        0.04543    0.41668    0.18821    1.000
    N107     N        0.00907    0.42942    0.13318    1.000
    Si108    Si       0.01041    0.43991    0.17453    1.000
    Si109    Si       0.01449    0.27351    0.31263    1.000
    Si110    Si       0.02626    0.34263    0.31325    1.000
    N111     N        0.03703    0.30438    0.29411    1.000
    N112     N        0.04132    0.34190    0.35474    1.000
    N113     N        0.03083    0.38133    0.29298    1.000
    Si114    Si       0.00055    0.39084    0.26262    1.000
    Si115    Si       0.03321    0.44919    0.27551    1.000
    N116     N        0.01257    0.45081    0.31486    1.000
    Si117    Si       0.02743    0.43679    0.35301    1.000
    N118     N        0.02794    0.49299    0.26939    1.000
    Si119    Si       0.99691    0.48990    0.30268    1.000
    N120     N        0.00259    0.43357    0.25009    1.000
    N121     N        0.00412    0.28033    0.41183    1.000
    Si122    Si       0.02456    0.34132    0.39454    1.000
    N123     N        0.02744    0.37755    0.42042    1.000
    Si124    Si       0.04738    0.26835    0.41906    1.000
    N125     N        0.01703    0.44781    0.43689    1.000
    N126     N        0.03953    0.47267    0.37429    1.000
    Si127    Si       0.99821    0.41110    0.41988    1.000
    Si128    Si       0.99424    0.47760    0.45755    1.000
    N129     N        0.99352    0.41936    0.37552    1.000
    N130     N        0.02528    0.36739    0.59018    1.000
    Si131    Si       0.00014    0.29322    0.53083    1.000
    N132     N        0.03865    0.31215    0.54393    1.000
    N133     N        0.02233    0.27397    0.49817    1.000
    Si134    Si       0.00827    0.40592    0.58092    1.000
    N135     N        0.02234    0.41832    0.54206    1.000
    Si136    Si       0.01920    0.47820    0.60556    1.000
    N137     N        0.02410    0.43528    0.61015    1.000
    Si138    Si       0.02801    0.50433    0.52674    1.000
    N139     N        0.00585    0.47617    0.49999    1.000
    N140     N        0.00925    0.50638    0.57132    1.000
    Si141    Si       0.00719    0.35649    0.62747    1.000
    N142     N        0.99965    0.31432    0.69932    1.000
    Si143    Si       0.02797    0.32996    0.73140    1.000
    Si144    Si       0.01323    0.29218    0.66617    1.000
    N145     N        0.03126    0.32411    0.64267    1.000
    N146     N        0.04238    0.37017    0.72482    1.000
    N147     N        0.04306    0.26727    0.68127    1.000
    Si148    Si       0.99749    0.45262    0.73422    1.000
    N149     N        0.00967    0.38702    0.65880    1.000
    N150     N        0.03228    0.47746    0.72857    1.000
    N151     N        0.99157    0.47601    0.64098    1.000
    Si152    Si       0.04500    0.38706    0.68473    1.000
    Si153    Si       0.01489    0.43653    0.65378    1.000
    N154     N        0.99265    0.43494    0.69459    1.000
    Si155    Si       0.02899    0.34326    0.80151    1.000
    N156     N        0.00390    0.33517    0.76846    1.000
    N157     N        0.00220    0.36081    0.83344    1.000
    Si158    Si       0.03976    0.29129    0.85279    1.000
    N159     N        0.99738    0.28341    0.86184    1.000
    Si160    Si       0.03419    0.40666    0.83778    1.000
    N161     N        0.00604    0.43446    0.82649    1.000
    N162     N        0.00465    0.41798    0.75883    1.000
    Si163    Si       0.04484    0.39829    0.75834    1.000
    Si164    Si       0.01317    0.35270    0.87547    1.000
    Si165    Si       0.01132    0.30725    0.99389    1.000
    N166     N        0.99416    0.26711    0.98382    1.000
    N167     N        0.98959    0.33550    0.90475    1.000
    N168     N        0.04820    0.31299    0.96822    1.000
    N169     N        0.01375    0.50854    0.92947    1.000
    N170     N        0.02675    0.39452    0.88085    1.000
    Si171    Si       0.01844    0.46480    0.92310    1.000
    N172     N        0.01788    0.44755    0.96380    1.000
    N173     N        0.01913    0.53209    0.05243    1.000
    Si174    Si       0.00819    0.57424    0.06161    1.000
    N175     N        0.03809    0.60444    0.05446    1.000
    Si176    Si       0.02312    0.69566    0.07689    1.000
    N177     N        0.00912    0.66590    0.10508    1.000
    N178     N        0.99933    0.70683    0.04259    1.000
    Si179    Si       0.00856    0.74626    0.02515    1.000
    N180     N        0.03469    0.73408    0.09715    1.000
    N181     N        0.01474    0.60272    0.14887    1.000
    Si182    Si       0.03038    0.57049    0.17659    1.000
    N183     N        0.04555    0.58716    0.21530    1.000
    N184     N        0.99512    0.55072    0.19239    1.000
    Si185    Si       0.01156    0.58915    0.24330    1.000
    Si186    Si       0.01403    0.69489    0.17838    1.000
    Si187    Si       0.00375    0.75250    0.12277    1.000
    N188     N        0.04290    0.66446    0.16564    1.000
    N189     N        0.01341    0.73418    0.15994    1.000
    N190     N        0.02900    0.70261    0.21965    1.000
    Si191    Si       0.03311    0.63826    0.13277    1.000
    Si192    Si       0.00248    0.73066    0.23991    1.000
    N193     N        0.02068    0.58412    0.33166    1.000
    N194     N        0.02580    0.61729    0.27377    1.000
    N195     N        0.00541    0.52072    0.32850    1.000
    Si196    Si       0.03970    0.51024    0.35381    1.000
    Si197    Si       0.99133    0.56061    0.31255    1.000
    Si198    Si       0.01554    0.65579    0.28859    1.000
    N199     N        0.00667    0.66631    0.32848    1.000
    N200     N        0.04368    0.75330    0.25996    1.000
    Si201    Si       0.04493    0.68499    0.33438    1.000
    Si202    Si       0.04724    0.52926    0.42647    1.000
    N203     N        0.99195    0.58096    0.40435    1.000
    N204     N        0.02392    0.62873    0.44974    1.000
    Si205    Si       0.02476    0.57753    0.37504    1.000
    N206     N        0.00713    0.51608    0.43809    1.000
    N207     N        0.04102    0.53970    0.38569    1.000
    N208     N        0.03451    0.70445    0.37540    1.000
    Si209    Si       0.01766    0.66309    0.47499    1.000
    N210     N        0.01111    0.69694    0.44731    1.000
    Si211    Si       0.00490    0.72830    0.47872    1.000
    N212     N        0.04452    0.73746    0.49043    1.000
    Si213    Si       0.00501    0.70964    0.40715    1.000
    N214     N        0.00684    0.75416    0.41163    1.000
    Si215    Si       0.03496    0.53520    0.59243    1.000
    N216     N        0.02415    0.54529    0.51684    1.000
    N217     N        0.03648    0.61245    0.52957    1.000
    Si218    Si       0.99427    0.62548    0.53075    1.000
    Si219    Si       0.02320    0.68439    0.55226    1.000
    N220     N        0.01547    0.72585    0.55604    1.000
    N221     N        0.04263    0.67517    0.51026    1.000
    N222     N        0.04745    0.71909    0.61217    1.000
    N223     N        0.01078    0.54967    0.62828    1.000
    Si224    Si       0.03055    0.51989    0.73309    1.000
    N225     N        0.00717    0.53546    0.69938    1.000
    Si226    Si       0.03252    0.54988    0.66652    1.000
    Si227    Si       0.01754    0.62417    0.66766    1.000
    N228     N        0.04611    0.59020    0.66642    1.000
    N229     N        0.02659    0.64322    0.70444    1.000
    Si230    Si       0.01500    0.73574    0.63708    1.000
    N231     N        0.03099    0.64905    0.63536    1.000
    N232     N        0.03720    0.74426    0.67227    1.000
    Si233    Si       0.99188    0.66453    0.72466    1.000
    Si234    Si       0.03449    0.72444    0.71116    1.000
    N235     N        0.99430    0.70633    0.70963    1.000
    N236     N        0.01496    0.57470    0.82848    1.000
    Si237    Si       0.01005    0.61594    0.84170    1.000
    N238     N        0.01773    0.52782    0.77377    1.000
    Si239    Si       0.00735    0.54029    0.85608    1.000
    Si240    Si       0.04056    0.56128    0.79420    1.000
    N241     N        0.04078    0.59101    0.76291    1.000
    N242     N        0.04424    0.52111    0.86280    1.000
    Si243    Si       0.03635    0.63278    0.77221    1.000
    N244     N        0.02075    0.69884    0.83319    1.000
    Si245    Si       0.01946    0.74042    0.84531    1.000
    N246     N        0.00055    0.65952    0.76656    1.000
    N247     N        0.03462    0.64130    0.81469    1.000
    Si248    Si       0.99563    0.67195    0.80772    1.000
    Si249    Si       0.00821    0.59416    0.90929    1.000
    N250     N        0.02558    0.62214    0.88152    1.000
    N251     N        0.03994    0.57277    0.93011    1.000
    N252     N        0.03322    0.53786    0.98945    1.000
    Si253    Si       0.04378    0.53368    0.94877    1.000
    Si254    Si       0.99149    0.54927    0.99600    1.000
    N255     N        0.01393    0.66312    0.98759    1.000
    N256     N        0.01226    0.74348    0.88808    1.000
    Si257    Si       0.03977    0.65921    0.89945    1.000
    N258     N        0.00615    0.68066    0.91721    1.000
    N259     N        0.02983    0.84156    0.05693    1.000
    Si260    Si       0.00412    0.81230    0.07399    1.000
    N261     N        0.02500    0.79395    0.11030    1.000
    N262     N        0.99589    0.77809    0.04958    1.000
    N263     N        0.04359    0.80408    0.99570    1.000
    Si264    Si       0.03049    0.88353    0.05285    1.000
    N265     N        0.02077    0.89681    0.01101    1.000
    N266     N        0.00374    0.90578    0.07994    1.000
    Si267    Si       0.00277    0.97857    0.05850    1.000
    N268     N        0.03791    0.97630    0.08208    1.000
    N269     N        0.98480    0.94887    0.03223    1.000
    N270     N        0.99426    0.77352    0.22878    1.000
    N271     N        0.00160    0.85460    0.13096    1.000
    Si272    Si       0.03267    0.82494    0.14168    1.000
    N273     N        0.02983    0.81686    0.18553    1.000
    Si274    Si       0.99253    0.81084    0.20566    1.000
    Si275    Si       0.01164    0.89678    0.12114    1.000
    N276     N        0.03292    0.97699    0.16641    1.000
    N277     N        0.99624    0.94659    0.21815    1.000
    N278     N        0.99198    0.92014    0.15304    1.000
    Si279    Si       0.01811    0.93780    0.18204    1.000
    Si280    Si       0.00734    0.82847    0.32904    1.000
    Si281    Si       0.00315    0.85325    0.26138    1.000
    Si282    Si       0.01881    0.78626    0.26501    1.000
    N283     N        0.00316    0.79247    0.30291    1.000
    N284     N        0.03434    0.82324    0.25075    1.000
    N285     N        0.04553    0.77508    0.36055    1.000
    N286     N        0.99290    0.85838    0.30185    1.000
    Si287    Si       0.04218    0.93252    0.33949    1.000
    Si288    Si       0.02070    0.98559    0.29760    1.000
    N289     N        0.00235    0.91503    0.33606    1.000
    N290     N        0.03551    0.94608    0.28203    1.000
    Si291    Si       0.00466    0.92902    0.25661    1.000
    N292     N        0.02229    0.89041    0.24632    1.000
    Si293    Si       0.00461    0.77451    0.37278    1.000
    N294     N        0.04560    0.80224    0.46815    1.000
    N295     N        0.03426    0.86898    0.46587    1.000
    N296     N        0.03514    0.82200    0.40930    1.000
    Si297    Si       0.01159    0.78677    0.44265    1.000
    Si298    Si       0.99474    0.83700    0.40236    1.000
    N299     N        0.99663    0.88014    0.40670    1.000
    Si300    Si       0.02018    0.95070    0.48689    1.000
    Si301    Si       0.04524    0.94732    0.42337    1.000
    Si302    Si       0.00146    0.89203    0.45141    1.000
    Si303    Si       0.99921    0.91442    0.38008    1.000
    N304     N        0.04496    0.98904    0.41318    1.000
    N305     N        0.03993    0.93295    0.38260    1.000
    N306     N        0.00931    0.93673    0.44632    1.000
    N307     N        0.01358    0.85334    0.52690    1.000
    Si308    Si       0.01619    0.82373    0.55878    1.000
    N309     N        0.00621    0.77007    0.61180    1.000
    N310     N        0.03020    0.78584    0.54188    1.000
    N311     N        0.04403    0.82990    0.59293    1.000
    Si312    Si       0.04337    0.87778    0.50774    1.000
    Si313    Si       0.03384    0.75905    0.57709    1.000
    N314     N        0.02863    0.96630    0.56770    1.000
    N315     N        0.02740    0.91879    0.51637    1.000
    Si316    Si       0.02767    0.91959    0.55916    1.000
    Si317    Si       0.00257    0.99136    0.54227    1.000
    N318     N        0.99202    0.91811    0.58447    1.000
    Si319    Si       0.99248    0.96130    0.59633    1.000
    N320     N        0.02285    0.86548    0.70559    1.000
    Si321    Si       0.03284    0.83970    0.63602    1.000
    N322     N        0.03966    0.88202    0.64313    1.000
    N323     N        0.99126    0.83359    0.63971    1.000
    Si324    Si       0.01175    0.84230    0.74251    1.000
    N325     N        0.02688    0.75791    0.73897    1.000
    Si326    Si       0.99288    0.97102    0.67637    1.000
    Si327    Si       0.01568    0.89771    0.67472    1.000
    Si328    Si       0.03596    0.94917    0.72514    1.000
    N329     N        0.99629    0.98247    0.63335    1.000
    N330     N        0.00262    0.99912    0.70892    1.000
    N331     N        0.02608    0.94330    0.68278    1.000
    Si332    Si       0.02786    0.86818    0.80743    1.000
    N333     N        0.03105    0.82560    0.80986    1.000
    N334     N        0.00249    0.87583    0.77156    1.000
    Si335    Si       0.99388    0.80536    0.80289    1.000
    N336     N        0.99381    0.76403    0.81580    1.000
    N337     N        0.00161    0.97146    0.83800    1.000
    N338     N        0.01865    0.90343    0.83471    1.000
    Si339    Si       0.01739    0.00572    0.81708    1.000
    N340     N        0.00181    0.94733    0.75137    1.000
    N341     N        0.99973    0.79102    0.93806    1.000
    Si342    Si       0.03092    0.77298    0.91451    1.000
    N343     N        0.00325    0.85200    0.89129    1.000
    Si344    Si       0.01620    0.82139    0.96695    1.000
    Si345    Si       0.04255    0.84545    0.90418    1.000
    Si346    Si       0.03037    0.00233    0.98815    1.000
    Si347    Si       0.04424    0.91081    0.87111    1.000
    N348     N        0.98867    0.98863    0.91458    1.000
    N349     N        0.02446    0.93355    0.90350    1.000
    N350     N        0.02158    0.96134    0.97450    1.000
    Si351    Si       0.02498    0.96739    0.92947    1.000
    N352     N        0.06438    0.03802    0.06908    1.000
    Si353    Si       0.10062    0.04593    0.04727    1.000
    Si354    Si       0.04618    0.01445    0.10189    1.000
    N355     N        0.09028    0.13120    0.02533    1.000
    N356     N        0.08187    0.25045    0.06472    1.000
    N357     N        0.07496    0.18026    0.07145    1.000
    Si358    Si       0.08973    0.21736    0.09046    1.000
    Si359    Si       0.09167    0.24071    0.02135    1.000
    Si360    Si       0.10543    0.16837    0.04333    1.000
    N361     N        0.07600    0.10084    0.12783    1.000
    Si362    Si       0.08745    0.06161    0.14482    1.000
    N363     N        0.07934    0.01879    0.13478    1.000
    N364     N        0.09087    0.07011    0.18892    1.000
    Si365    Si       0.06203    0.04647    0.21153    1.000
    Si366    Si       0.05810    0.13220    0.15180    1.000
    N367     N        0.10904    0.20298    0.22377    1.000
    N368     N        0.05899    0.14456    0.23580    1.000
    N369     N        0.06994    0.22151    0.12738    1.000
    Si370    Si       0.07800    0.17721    0.20779    1.000
    N371     N        0.09164    0.15567    0.17115    1.000
    Si372    Si       0.06369    0.10234    0.33122    1.000
    N373     N        0.06980    0.12268    0.29381    1.000
    N374     N        0.07186    0.02844    0.36084    1.000
    Si375    Si       0.08230    0.10778    0.25517    1.000
    N376     N        0.10158    0.09121    0.34817    1.000
    N377     N        0.05753    0.07078    0.24681    1.000
    N378     N        0.05187    0.01364    0.28514    1.000
    Si379    Si       0.05221    0.16021    0.27686    1.000
    N380     N        0.06139    0.18176    0.35391    1.000
    N381     N        0.08463    0.18978    0.28577    1.000
    Si382    Si       0.09214    0.22183    0.26052    1.000
    Si383    Si       0.09605    0.18336    0.32741    1.000
    N384     N        0.05400    0.24305    0.25130    1.000
    Si385    Si       0.10329    0.25711    0.36840    1.000
    N386     N        0.07904    0.04295    0.47371    1.000
    N387     N        0.10167    0.19775    0.43575    1.000
    Si388    Si       0.06272    0.15055    0.38481    1.000
    Si389    Si       0.05777    0.19417    0.44201    1.000
    N390     N        0.06163    0.24828    0.38414    1.000
    N391     N        0.05144    0.17554    0.48324    1.000
    N392     N        0.10224    0.13818    0.39861    1.000
    N393     N        0.07811    0.06702    0.56606    1.000
    Si394    Si       0.09645    0.10097    0.54902    1.000
    N395     N        0.09771    0.01610    0.52882    1.000
    N396     N        0.06948    0.13402    0.53408    1.000
    Si397    Si       0.07961    0.22110    0.53274    1.000
    Si398    Si       0.09636    0.20013    0.61342    1.000
    Si399    Si       0.08496    0.15794    0.50124    1.000
    N400     N        0.08919    0.21804    0.57479    1.000
    N401     N        0.05990    0.17560    0.61902    1.000
    Si402    Si       0.06749    0.02948    0.62546    1.000
    Si403    Si       0.06878    0.08478    0.72976    1.000
    N404     N        0.09496    0.05702    0.64122    1.000
    N405     N        0.09855    0.08952    0.69930    1.000
    Si406    Si       0.07016    0.01426    0.70124    1.000
    N407     N        0.04796    0.04784    0.71835    1.000
    N408     N        0.07491    0.22519    0.71102    1.000
    Si409    Si       0.06663    0.14552    0.64941    1.000
    Si410    Si       0.08434    0.25268    0.67734    1.000
    N411     N        0.09500    0.23489    0.63972    1.000
    N412     N        0.07912    0.15641    0.69125    1.000
    Si413    Si       0.09606    0.18805    0.71849    1.000
    N414     N        0.07494    0.05361    0.82852    1.000
    N415     N        0.09247    0.09746    0.76321    1.000
    Si416    Si       0.09290    0.02160    0.80621    1.000
    Si417    Si       0.08744    0.13810    0.78317    1.000
    N418     N        0.08134    0.20386    0.82988    1.000
    Si419    Si       0.08516    0.21144    0.78720    1.000
    N420     N        0.08731    0.17536    0.75915    1.000
    N421     N        0.05510    0.24165    0.77421    1.000
    N422     N        0.04916    0.13758    0.80359    1.000
    N423     N        0.07608    0.07878    0.88401    1.000
    Si424    Si       0.07115    0.10233    0.92008    1.000
    N425     N        0.05831    0.07385    0.95059    1.000
    Si426    Si       0.08762    0.05214    0.97305    1.000
    N427     N        0.07145    0.01636    0.99198    1.000
    N428     N        0.09936    0.16829    0.88938    1.000
    Si429    Si       0.08185    0.22175    0.95195    1.000
    N430     N        0.06212    0.23899    0.98897    1.000
    N431     N        0.05674    0.19025    0.93990    1.000
    Si432    Si       0.05667    0.16897    0.90147    1.000
    N433     N        0.07722    0.31709    0.07575    1.000
    N434     N        0.08026    0.35345    0.00626    1.000
    Si435    Si       0.06077    0.33064    0.03859    1.000
    N436     N        0.10237    0.28196    0.00900    1.000
    N437     N        0.05673    0.37698    0.11406    1.000
    Si438    Si       0.04891    0.33315    0.10858    1.000
    Si439    Si       0.10782    0.28757    0.07872    1.000
    Si440    Si       0.09779    0.38414    0.09985    1.000
    Si441    Si       0.06552    0.38858    0.03180    1.000
    N442     N        0.09998    0.38946    0.05781    1.000
    N443     N        0.07272    0.48881    0.02879    1.000
    Si444    Si       0.08585    0.45545    0.10464    1.000
    N445     N        0.05304    0.43664    0.08170    1.000
    N446     N        0.05581    0.42365    0.01305    1.000
    N447     N        0.07237    0.35126    0.19480    1.000
    N448     N        0.06894    0.31294    0.14133    1.000
    Si449    Si       0.07033    0.26641    0.13347    1.000
    N450     N        0.05814    0.26465    0.17538    1.000
    Si451    Si       0.05463    0.31272    0.18181    1.000
    N452     N        0.07147    0.46366    0.14386    1.000
    Si453    Si       0.05839    0.49639    0.16868    1.000
    Si454    Si       0.08019    0.44017    0.18210    1.000
    N455     N        0.09061    0.48059    0.19763    1.000
    Si456    Si       0.05830    0.28833    0.25816    1.000
    N457     N        0.10266    0.37458    0.29963    1.000
    Si458    Si       0.07975    0.32903    0.37247    1.000
    N459     N        0.10499    0.29790    0.35419    1.000
    N460     N        0.09630    0.30952    0.24709    1.000
    Si461    Si       0.06926    0.40035    0.30583    1.000
    N462     N        0.07270    0.43645    0.28241    1.000
    N463     N        0.06416    0.41322    0.34786    1.000
    N464     N        0.09509    0.50000    0.26282    1.000
    N465     N        0.08242    0.27053    0.44840    1.000
    Si466    Si       0.09097    0.31486    0.44724    1.000
    N467     N        0.09365    0.36295    0.44418    1.000
    N468     N        0.08086    0.32353    0.48879    1.000
    N469     N        0.06055    0.31579    0.40913    1.000
    Si470    Si       0.09086    0.36602    0.49068    1.000
    N471     N        0.10543    0.36401    0.37735    1.000
    N472     N        0.06141    0.40311    0.48045    1.000
    Si473    Si       0.06286    0.39332    0.43919    1.000
    N474     N        0.07764    0.42529    0.41310    1.000
    N475     N        0.07661    0.49689    0.42832    1.000
    Si476    Si       0.05457    0.46190    0.41354    1.000
    Si477    Si       0.09608    0.40704    0.37504    1.000
    N478     N        0.08452    0.34405    0.59689    1.000
    N479     N        0.07467    0.37151    0.53282    1.000
    Si480    Si       0.06083    0.29230    0.51139    1.000
    Si481    Si       0.05525    0.34763    0.56414    1.000
    Si482    Si       0.09212    0.26912    0.61182    1.000
    N483     N        0.09067    0.26310    0.52427    1.000
    N484     N        0.05282    0.27055    0.59500    1.000
    Si485    Si       0.06020    0.41197    0.52299    1.000
    N486     N        0.06977    0.49391    0.52949    1.000
    N487     N        0.09932    0.43022    0.53275    1.000
    N488     N        0.05484    0.50029    0.61064    1.000
    N489     N        0.10383    0.41385    0.60415    1.000
    Si490    Si       0.10765    0.47279    0.53348    1.000
    Si491    Si       0.07252    0.33198    0.63700    1.000
    N492     N        0.10029    0.29895    0.64282    1.000
    N493     N        0.07934    0.36596    0.66423    1.000
    N494     N        0.05542    0.29583    0.73942    1.000
    N495     N        0.10638    0.46957    0.63422    1.000
    N496     N        0.05586    0.42867    0.67333    1.000
    Si497    Si       0.06491    0.45512    0.71385    1.000
    N498     N        0.09968    0.47676    0.70152    1.000
    Si499    Si       0.08899    0.42934    0.64540    1.000
    N500     N        0.07495    0.42496    0.74434    1.000
    Si501    Si       0.06940    0.28320    0.77895    1.000
    N502     N        0.10408    0.35209    0.83179    1.000
    N503     N        0.04742    0.30244    0.81135    1.000
    N504     N        0.05872    0.25616    0.86910    1.000
    N505     N        0.05053    0.38465    0.79878    1.000
    Si506    Si       0.09262    0.39007    0.81618    1.000
    N507     N        0.07633    0.42138    0.84488    1.000
    N508     N        0.10889    0.48579    0.83152    1.000
    Si509    Si       0.10810    0.44896    0.85435    1.000
    Si510    Si       0.09002    0.33957    0.87019    1.000
    N511     N        0.04936    0.32894    0.87583    1.000
    Si512    Si       0.07634    0.28070    0.97433    1.000
    Si513    Si       0.06754    0.34996    0.96369    1.000
    N514     N        0.09602    0.37551    0.89481    1.000
    Si515    Si       0.09285    0.26429    0.89447    1.000
    N516     N        0.08574    0.26227    0.93593    1.000
    Si517    Si       0.09315    0.47043    0.93013    1.000
    N518     N        0.09734    0.44738    0.96654    1.000
    N519     N        0.05860    0.44662    0.91550    1.000
    Si520    Si       0.06335    0.40140    0.90563    1.000
    N521     N        0.05559    0.38952    0.94821    1.000
    Si522    Si       0.05820    0.42791    0.96857    1.000
    N523     N        0.08800    0.55703    0.03137    1.000
    Si524    Si       0.07219    0.59621    0.02737    1.000
    N525     N        0.09712    0.62734    0.04320    1.000
    Si526    Si       0.05520    0.52777    0.02628    1.000
    N527     N        0.06748    0.63169    0.10886    1.000
    Si528    Si       0.06172    0.64029    0.06701    1.000
    Si529    Si       0.07410    0.70752    0.02418    1.000
    N530     N        0.05920    0.68110    0.05634    1.000
    N531     N        0.05060    0.73978    0.01262    1.000
    N532     N        0.05898    0.53876    0.16155    1.000
    Si533    Si       0.07947    0.57606    0.23923    1.000
    Si534    Si       0.10069    0.54966    0.16608    1.000
    N535     N        0.10211    0.55095    0.21103    1.000
    N536     N        0.08698    0.66597    0.22164    1.000
    N537     N        0.09421    0.70904    0.15800    1.000
    Si538    Si       0.08353    0.67251    0.17792    1.000
    N539     N        0.08637    0.59813    0.32218    1.000
    Si540    Si       0.08283    0.61897    0.35765    1.000
    Si541    Si       0.06084    0.51832    0.28161    1.000
    N542     N        0.05411    0.56060    0.27084    1.000
    N543     N        0.07140    0.51628    0.32319    1.000
    Si544    Si       0.04989    0.59265    0.30146    1.000
    N545     N        0.10813    0.60341    0.25798    1.000
    N546     N        0.07588    0.65850    0.34629    1.000
    N547     N        0.08818    0.72164    0.34326    1.000
    N548     N        0.09836    0.72282    0.24902    1.000
    N549     N        0.04920    0.68304    0.28473    1.000
    Si550    Si       0.06412    0.69773    0.24633    1.000
    Si551    Si       0.09478    0.57709    0.46083    1.000
    N552     N        0.05552    0.56740    0.44392    1.000
    N553     N        0.09519    0.61746    0.44195    1.000
    Si554    Si       0.05284    0.61001    0.42740    1.000
    N555     N        0.05336    0.60643    0.38594    1.000
    N556     N        0.09420    0.74697    0.40653    1.000
    Si557    Si       0.06410    0.73766    0.37631    1.000
    N558     N        0.09075    0.69917    0.46308    1.000
    N559     N        0.09041    0.57711    0.50542    1.000
    N560     N        0.05973    0.56509    0.57517    1.000
    Si561    Si       0.10072    0.57378    0.59357    1.000
    Si562    Si       0.05410    0.57378    0.53015    1.000
    Si563    Si       0.06439    0.64416    0.53338    1.000
    Si564    Si       0.09021    0.73335    0.60800    1.000
    Si565    Si       0.05672    0.67631    0.61168    1.000
    Si566    Si       0.07353    0.70639    0.50078    1.000
    N567     N        0.05600    0.66531    0.57110    1.000
    N568     N        0.09803    0.69037    0.61907    1.000
    N569     N        0.10547    0.71407    0.52964    1.000
    Si570    Si       0.07583    0.58084    0.73911    1.000
    N571     N        0.07154    0.52749    0.66566    1.000
    Si572    Si       0.09665    0.51872    0.70139    1.000
    Si573    Si       0.08470    0.60937    0.66774    1.000
    N574     N        0.07365    0.53651    0.73353    1.000
    N575     N        0.09940    0.59354    0.70700    1.000
    Si576    Si       0.09146    0.50871    0.63069    1.000
    N577     N        0.10804    0.59647    0.63006    1.000
    N578     N        0.08796    0.65109    0.67599    1.000
    Si579    Si       0.10520    0.72856    0.71314    1.000
    Si580    Si       0.06583    0.66052    0.71168    1.000
    N581     N        0.06939    0.70331    0.72291    1.000
    N582     N        0.09868    0.75599    0.64473    1.000
    N583     N        0.07836    0.54428    0.81054    1.000
    Si584    Si       0.08380    0.51827    0.84651    1.000
    Si585    Si       0.10495    0.63314    0.78012    1.000
    N586     N        0.10489    0.59234    0.77315    1.000
    N587     N        0.07132    0.65049    0.75458    1.000
    N588     N        0.07754    0.70392    0.80146    1.000
    Si589    Si       0.08398    0.74600    0.80597    1.000
    Si590    Si       0.06208    0.67397    0.83113    1.000
    Si591    Si       0.09552    0.69031    0.76192    1.000
    N592     N        0.09832    0.64359    0.82130    1.000
    N593     N        0.05873    0.75575    0.84152    1.000
    Si594    Si       0.06977    0.60101    0.94785    1.000
    N595     N        0.05980    0.61039    0.98882    1.000
    N596     N        0.08284    0.51373    0.93818    1.000
    Si597    Si       0.10210    0.75022    0.92293    1.000
    N598     N        0.06976    0.67819    0.87533    1.000
    N599     N        0.08469    0.68258    0.98855    1.000
    N600     N        0.05879    0.64375    0.93621    1.000
    Si601    Si       0.05343    0.65231    0.97944    1.000
    N602     N        0.06525    0.76065    0.94151    1.000
    N603     N        0.07498    0.78856    0.05881    1.000
    N604     N        0.08758    0.85222    0.01447    1.000
    Si605    Si       0.06046    0.77063    0.09709    1.000
    Si606    Si       0.06064    0.82230    0.03155    1.000
    Si607    Si       0.08718    0.87435    0.11695    1.000
    Si608    Si       0.10223    0.88589    0.04195    1.000
    N609     N        0.10592    0.77956    0.99928    1.000
    N610     N        0.06959    0.95803    0.02410    1.000
    N611     N        0.06728    0.90621    0.05985    1.000
    Si612    Si       0.06906    0.94886    0.06723    1.000
    Si613    Si       0.09934    0.98657    0.00543    1.000
    N614     N        0.10291    0.96331    0.08657    1.000
    N615     N        0.09324    0.77532    0.12813    1.000
    N616     N        0.07417    0.83723    0.13476    1.000
    N617     N        0.09256    0.78828    0.22352    1.000
    Si618    Si       0.06219    0.81837    0.21588    1.000
    N619     N        0.08109    0.85676    0.21919    1.000
    Si620    Si       0.08062    0.92261    0.15490    1.000
    N621     N        0.05501    0.90322    0.12548    1.000
    Si622    Si       0.06135    0.89372    0.22866    1.000
    Si623    Si       0.07268    0.99006    0.17274    1.000
    N624     N        0.05615    0.92002    0.19093    1.000
    N625     N        0.10012    0.96141    0.15606    1.000
    N626     N        0.08339    0.00825    0.20941    1.000
    Si627    Si       0.08019    0.87089    0.34282    1.000
    N628     N        0.10035    0.78348    0.29518    1.000
    Si629    Si       0.08555    0.76338    0.25904    1.000
    N630     N        0.04723    0.84122    0.34095    1.000
    N631     N        0.10442    0.97067    0.28007    1.000
    Si632    Si       0.07706    0.93537    0.28574    1.000
    N633     N        0.07338    0.90807    0.32161    1.000
    Si634    Si       0.08555    0.99891    0.30964    1.000
    N635     N        0.06222    0.97164    0.33558    1.000
    N636     N        0.09189    0.91132    0.25412    1.000
    Si637    Si       0.05770    0.81403    0.37273    1.000
    N638     N        0.09860    0.85148    0.44614    1.000
    Si639    Si       0.05653    0.83669    0.44558    1.000
    N640     N        0.09805    0.81466    0.38762    1.000
    N641     N        0.05237    0.98268    0.49148    1.000
    Si642    Si       0.06955    0.98721    0.37706    1.000
    N643     N        0.09512    0.88283    0.38247    1.000
    N644     N        0.08134    0.92895    0.43757    1.000
    Si645    Si       0.08228    0.81053    0.58757    1.000
    N646     N        0.07669    0.76739    0.58037    1.000
    N647     N        0.09269    0.77713    0.51465    1.000
    N648     N        0.08427    0.88197    0.51136    1.000
    Si649    Si       0.05038    0.77848    0.50458    1.000
    Si650    Si       0.09957    0.88328    0.55357    1.000
    N651     N        0.10335    0.83964    0.55974    1.000
    N652     N        0.09282    0.95733    0.55112    1.000
    Si653    Si       0.06926    0.97165    0.58536    1.000
    Si654    Si       0.08951    0.97685    0.51285    1.000
    N655     N        0.06242    0.89727    0.57191    1.000
    Si656    Si       0.06655    0.90182    0.61404    1.000
    N657     N        0.09073    0.00834    0.59504    1.000
    N658     N        0.06330    0.94435    0.61914    1.000
    N659     N        0.05145    0.82375    0.73964    1.000
    Si660    Si       0.07035    0.77433    0.67093    1.000
    Si661    Si       0.06179    0.84417    0.70192    1.000
    N662     N        0.08896    0.76875    0.71003    1.000
    N663     N        0.05444    0.81431    0.66672    1.000
    Si664    Si       0.06267    0.78274    0.74135    1.000
    N665     N        0.10183    0.85599    0.68775    1.000
    Si666    Si       0.06180    0.95831    0.66079    1.000
    N667     N        0.06414    0.91804    0.73693    1.000
    Si668    Si       0.09729    0.94837    0.72080    1.000
    N669     N        0.06733    0.97882    0.72420    1.000
    N670     N        0.06079    0.00283    0.66026    1.000
    N671     N        0.09959    0.94390    0.67708    1.000
    N672     N        0.10609    0.88875    0.62962    1.000
    Si673    Si       0.07446    0.82557    0.79614    1.000
    N674     N        0.06852    0.87195    0.79239    1.000
    N675     N        0.07553    0.78007    0.78246    1.000
    Si676    Si       0.07833    0.78934    0.86272    1.000
    N677     N        0.09468    0.82165    0.83839    1.000
    Si678    Si       0.08631    0.90474    0.77026    1.000
    Si679    Si       0.08430    0.96475    0.82358    1.000
    N680     N        0.05777    0.99378    0.80533    1.000
    N681     N        0.07427    0.94223    0.85829    1.000
    N682     N        0.09957    0.93554    0.79604    1.000
    N683     N        0.06531    0.87569    0.88494    1.000
    Si684    Si       0.07818    0.86234    0.97154    1.000
    Si685    Si       0.06632    0.77011    0.98352    1.000
    N686     N        0.05145    0.80449    0.89147    1.000
    N687     N        0.04578    0.84766    0.94784    1.000
    Si688    Si       0.10597    0.87614    0.90380    1.000
    Si689    Si       0.10473    0.99107    0.93553    1.000
    N690     N        0.07784    0.90525    0.97513    1.000
    N691     N        0.06163    0.98887    0.92652    1.000
    Si692    Si       0.04634    0.93158    0.99585    1.000
    Si693    Si       0.12473    0.10177    0.02737    1.000
    Si694    Si       0.11633    0.10074    0.10610    1.000
    N695     N        0.11940    0.08226    0.06701    1.000
    N696     N        0.12176    0.00936    0.03642    1.000
    N697     N        0.16312    0.10661    0.01024    1.000
    N698     N        0.10299    0.06894    0.00901    1.000
    Si699    Si       0.15228    0.17185    0.09631    1.000
    N700     N        0.14798    0.15619    0.05490    1.000
    N701     N        0.13061    0.20805    0.10332    1.000
    N702     N        0.11694    0.20567    0.02232    1.000
    N703     N        0.16139    0.25348    0.99737    1.000
    Si704    Si       0.14985    0.21181    0.99404    1.000
    Si705    Si       0.12947    0.08087    0.20473    1.000
    N706     N        0.12837    0.06651    0.13077    1.000
    N707     N        0.15239    0.11480    0.18744    1.000
    N708     N        0.15721    0.04889    0.19016    1.000
    Si709    Si       0.16113    0.04009    0.14599    1.000
    N710     N        0.12240    0.09743    0.24490    1.000
    N711     N        0.14305    0.01850    0.24922    1.000
    N712     N        0.13683    0.13873    0.12131    1.000
    N713     N        0.13651    0.24688    0.17391    1.000
    N714     N        0.15474    0.18167    0.17397    1.000
    Si715    Si       0.13314    0.14525    0.16397    1.000
    Si716    Si       0.13942    0.24023    0.13131    1.000
    Si717    Si       0.14301    0.21426    0.19984    1.000
    Si718    Si       0.15189    0.02961    0.28940    1.000
    N719     N        0.11409    0.02991    0.31280    1.000
    Si720    Si       0.12715    0.12202    0.36571    1.000
    Si721    Si       0.16287    0.09866    0.26456    1.000
    Si722    Si       0.10797    0.04867    0.35091    1.000
    N723     N        0.15856    0.20006    0.29457    1.000
    N724     N        0.12622    0.15312    0.33231    1.000
    Si725    Si       0.13908    0.23478    0.31036    1.000
    N726     N        0.11619    0.25221    0.27806    1.000
    N727     N        0.11306    0.22190    0.34162    1.000
    Si728    Si       0.16230    0.16336    0.31257    1.000
    N729     N        0.13916    0.03526    0.37805    1.000
    N730     N        0.15560    0.02935    0.48865    1.000
    Si731    Si       0.14244    0.10953    0.48676    1.000
    N732     N        0.15910    0.08492    0.45320    1.000
    N733     N        0.16579    0.10056    0.37802    1.000
    Si734    Si       0.11432    0.24153    0.44056    1.000
    N735     N        0.14716    0.24115    0.46898    1.000
    N736     N        0.11219    0.13706    0.47269    1.000
    N737     N        0.16545    0.14917    0.43455    1.000
    N738     N        0.13114    0.25486    0.40228    1.000
    Si739    Si       0.12227    0.15650    0.43381    1.000
    N740     N        0.14803    0.04980    0.56837    1.000
    N741     N        0.12963    0.11630    0.57537    1.000
    N742     N        0.11640    0.08389    0.51448    1.000
    Si743    Si       0.16147    0.09055    0.55994    1.000
    Si744    Si       0.11476    0.04407    0.49760    1.000
    Si745    Si       0.10723    0.03501    0.56683    1.000
    Si746    Si       0.13766    0.13987    0.61163    1.000
    N747     N        0.13559    0.18345    0.60786    1.000
    N748     N        0.15692    0.23096    0.54172    1.000
    Si749    Si       0.14774    0.21239    0.50417    1.000
    Si750    Si       0.16036    0.21152    0.58356    1.000
    N751     N        0.10788    0.19536    0.51032    1.000
    N752     N        0.15671    0.06789    0.66499    1.000
    N753     N        0.11016    0.02554    0.70385    1.000
    Si754    Si       0.11694    0.05805    0.67643    1.000
    Si755    Si       0.11223    0.12663    0.68310    1.000
    Si756    Si       0.13370    0.00996    0.73647    1.000
    N757     N        0.15185    0.13141    0.69483    1.000
    N758     N        0.10654    0.12881    0.63989    1.000
    Si759    Si       0.16428    0.16383    0.71917    1.000
    N760     N        0.13784    0.19635    0.71054    1.000
    Si761    Si       0.14907    0.23824    0.71195    1.000
    N762     N        0.13201    0.08207    0.82232    1.000
    Si763    Si       0.12684    0.07464    0.77758    1.000
    Si764    Si       0.14684    0.12184    0.83471    1.000
    N765     N        0.11748    0.03314    0.77209    1.000
    Si766    Si       0.10657    0.06810    0.85605    1.000
    N767     N        0.16431    0.09141    0.76481    1.000
    N768     N        0.14849    0.19352    0.83722    1.000
    Si769    Si       0.14300    0.18051    0.79482    1.000
    N770     N        0.12828    0.22136    0.78529    1.000
    N771     N        0.12007    0.14543    0.81004    1.000
    Si772    Si       0.11210    0.19703    0.86026    1.000
    Si773    Si       0.14679    0.26133    0.78718    1.000
    N774     N        0.16431    0.16303    0.76283    1.000
    N775     N        0.13778    0.04540    0.87639    1.000
    N776     N        0.14643    0.11478    0.87844    1.000
    N777     N        0.11794    0.03152    0.94919    1.000
    Si778    Si       0.16250    0.03063    0.95823    1.000
    Si779    Si       0.16023    0.07709    0.89457    1.000
    N780     N        0.10944    0.11856    0.93295    1.000
    N781     N        0.12422    0.20863    0.95478    1.000
    N782     N        0.12151    0.23011    0.88915    1.000
    Si783    Si       0.13274    0.14371    0.90861    1.000
    N784     N        0.16447    0.17495    0.91103    1.000
    Si785    Si       0.14736    0.21542    0.92113    1.000
    Si786    Si       0.14448    0.28728    0.02033    1.000
    N787     N        0.14883    0.28632    0.06410    1.000
    N788     N        0.15443    0.32600    0.00380    1.000
    N789     N        0.12075    0.35067    0.11625    1.000
    N790     N        0.11416    0.27672    0.11921    1.000
    N791     N        0.16226    0.38375    0.07160    1.000
    N792     N        0.10966    0.48514    0.08383    1.000
    Si793    Si       0.13814    0.40409    0.04022    1.000
    N794     N        0.13041    0.44719    0.03115    1.000
    Si795    Si       0.11484    0.48589    0.04005    1.000
    N796     N        0.11182    0.42195    0.11646    1.000
    N797     N        0.13740    0.39511    0.99753    1.000
    Si798    Si       0.13734    0.51130    0.10772    1.000
    Si799    Si       0.11319    0.31662    0.14171    1.000
    N800     N        0.13088    0.36849    0.23631    1.000
    N801     N        0.12664    0.31409    0.18304    1.000
    Si802    Si       0.15542    0.28218    0.19166    1.000
    N803     N        0.15953    0.28397    0.23498    1.000
    Si804    Si       0.10830    0.33816    0.21616    1.000
    N805     N        0.15162    0.50134    0.21186    1.000
    Si806    Si       0.13947    0.41988    0.14922    1.000
    Si807    Si       0.13624    0.48288    0.17736    1.000
    Si808    Si       0.14115    0.41017    0.22486    1.000
    N809     N        0.15866    0.45798    0.14998    1.000
    N810     N        0.11955    0.42127    0.18718    1.000
    N811     N        0.14318    0.32029    0.29577    1.000
    Si812    Si       0.13928    0.36066    0.27883    1.000
    Si813    Si       0.12974    0.29121    0.26694    1.000
    Si814    Si       0.14468    0.30687    0.33712    1.000
    N815     N        0.16212    0.26741    0.32729    1.000
    N816     N        0.12623    0.47630    0.31855    1.000
    Si817    Si       0.15168    0.45522    0.34419    1.000
    N818     N        0.13666    0.43584    0.26147    1.000
    Si819    Si       0.10749    0.46232    0.28052    1.000
    Si820    Si       0.12587    0.35714    0.41597    1.000
    Si821    Si       0.15875    0.28925    0.40370    1.000
    N822     N        0.13075    0.31657    0.42744    1.000
    N823     N        0.15525    0.38497    0.42991    1.000
    N824     N        0.13483    0.37854    0.49659    1.000
    N825     N        0.15568    0.49071    0.42953    1.000
    N826     N        0.13494    0.42875    0.37425    1.000
    Si827    Si       0.16174    0.49545    0.47114    1.000
    N828     N        0.13849    0.36802    0.56242    1.000
    N829     N        0.12450    0.27667    0.58601    1.000
    Si830    Si       0.12760    0.26681    0.54540    1.000
    Si831    Si       0.11621    0.37297    0.59964    1.000
    N832     N        0.15786    0.29531    0.53017    1.000
    Si833    Si       0.16151    0.33499    0.55108    1.000
    N834     N        0.13767    0.48138    0.50466    1.000
    Si835    Si       0.12658    0.44982    0.59964    1.000
    N836     N        0.13149    0.47895    0.56959    1.000
    Si837    Si       0.13211    0.40048    0.53506    1.000
    N838     N        0.12240    0.38348    0.72405    1.000
    Si839    Si       0.15057    0.35040    0.73185    1.000
    N840     N        0.14145    0.36681    0.63520    1.000
    Si841    Si       0.13434    0.29998    0.66998    1.000
    Si842    Si       0.11801    0.37312    0.68114    1.000
    N843     N        0.13704    0.33483    0.69441    1.000
    N844     N        0.12275    0.26598    0.69276    1.000
    N845     N        0.16421    0.26516    0.74701    1.000
    Si846    Si       0.15944    0.40614    0.64643    1.000
    N847     N        0.12332    0.41662    0.66994    1.000
    N848     N        0.14602    0.44708    0.73560    1.000
    Si849    Si       0.13420    0.45353    0.69270    1.000
    N850     N        0.14902    0.34257    0.77512    1.000
    Si851    Si       0.12876    0.32391    0.80774    1.000
    N852     N        0.11126    0.28527    0.79280    1.000
    N853     N        0.16254    0.31035    0.83049    1.000
    Si854    Si       0.16087    0.42445    0.81139    1.000
    N855     N        0.14961    0.43009    0.85299    1.000
    N856     N        0.12203    0.40997    0.79328    1.000
    Si857    Si       0.14623    0.49880    0.81391    1.000
    Si858    Si       0.11732    0.41834    0.74917    1.000
    Si859    Si       0.15387    0.30623    0.87391    1.000
    N860     N        0.10996    0.30127    0.87760    1.000
    N861     N        0.11259    0.34696    0.95087    1.000
    Si862    Si       0.13300    0.36918    0.91855    1.000
    N863     N        0.15839    0.34164    0.89952    1.000
    Si864    Si       0.12426    0.35422    0.99318    1.000
    Si865    Si       0.13362    0.43975    0.98961    1.000
    N866     N        0.16584    0.46761    0.97797    1.000
    N867     N        0.11931    0.46056    0.89670    1.000
    N868     N        0.15456    0.40739    0.92656    1.000
    Si869    Si       0.15660    0.43943    0.89698    1.000
    N870     N        0.13423    0.54889    0.08398    1.000
    N871     N        0.13773    0.61861    0.09523    1.000
    Si872    Si       0.13014    0.55564    0.04141    1.000
    N873     N        0.13867    0.51794    0.01737    1.000
    Si874    Si       0.14715    0.57922    0.11175    1.000
    N875     N        0.15596    0.59238    0.03527    1.000
    Si876    Si       0.14088    0.62846    0.05321    1.000
    Si877    Si       0.15194    0.70848    0.03318    1.000
    N878     N        0.11184    0.72593    0.04163    1.000
    N879     N        0.14960    0.73747    0.11410    1.000
    N880     N        0.16067    0.66650    0.04844    1.000
    Si881    Si       0.10517    0.62180    0.12439    1.000
    N882     N        0.14743    0.62428    0.21026    1.000
    N883     N        0.12420    0.51588    0.14926    1.000
    N884     N        0.11708    0.58340    0.14372    1.000
    Si885    Si       0.10980    0.51109    0.22450    1.000
    N886     N        0.11188    0.64700    0.15860    1.000
    N887     N        0.13979    0.75351    0.17778    1.000
    Si888    Si       0.15173    0.64240    0.17214    1.000
    Si889    Si       0.11649    0.64040    0.23704    1.000
    Si890    Si       0.11703    0.74199    0.14237    1.000
    N891     N        0.13587    0.54871    0.30844    1.000
    Si892    Si       0.12252    0.58933    0.29880    1.000
    N893     N        0.15609    0.61678    0.30940    1.000
    Si894    Si       0.11412    0.51654    0.33164    1.000
    Si895    Si       0.15749    0.63289    0.35124    1.000
    N896     N        0.13957    0.66609    0.26343    1.000
    N897     N        0.14138    0.72468    0.30125    1.000
    Si898    Si       0.13951    0.71049    0.26070    1.000
    N899     N        0.15060    0.67546    0.34517    1.000
    Si900    Si       0.11269    0.75103    0.32124    1.000
    Si901    Si       0.10921    0.68435    0.35734    1.000
    N902     N        0.12289    0.62085    0.37545    1.000
    N903     N        0.11592    0.51813    0.37461    1.000
    N904     N        0.12259    0.55069    0.44189    1.000
    Si905    Si       0.11583    0.51424    0.41744    1.000
    N906     N        0.15233    0.59779    0.48726    1.000
    Si907    Si       0.16057    0.56235    0.46025    1.000
    N908     N        0.16028    0.66872    0.49301    1.000
    N909     N        0.16293    0.64650    0.42944    1.000
    Si910    Si       0.10792    0.71314    0.42717    1.000
    Si911    Si       0.12084    0.64058    0.41569    1.000
    N912     N        0.15151    0.71987    0.43799    1.000
    N913     N        0.11027    0.68071    0.39969    1.000
    Si914    Si       0.12244    0.60176    0.52150    1.000
    N915     N        0.12748    0.59116    0.56402    1.000
    Si916    Si       0.14959    0.51849    0.58289    1.000
    N917     N        0.11357    0.53422    0.60374    1.000
    Si918    Si       0.13323    0.67753    0.52611    1.000
    N919     N        0.13047    0.74465    0.59034    1.000
    N920     N        0.16141    0.68307    0.55940    1.000
    Si921    Si       0.10972    0.75554    0.55069    1.000
    N922     N        0.10553    0.64205    0.52334    1.000
    N923     N        0.13581    0.53503    0.70001    1.000
    Si924    Si       0.14657    0.61016    0.63474    1.000
    Si925    Si       0.13974    0.57730    0.70616    1.000
    N926     N        0.16449    0.59233    0.67421    1.000
    N927     N        0.14888    0.65197    0.64278    1.000
    Si928    Si       0.11713    0.67746    0.65559    1.000
    N929     N        0.12755    0.70861    0.68336    1.000
    N930     N        0.13308    0.58502    0.83356    1.000
    N931     N        0.14347    0.53158    0.78646    1.000
    Si932    Si       0.11579    0.56226    0.80104    1.000
    Si933    Si       0.12794    0.62428    0.84893    1.000
    Si934    Si       0.16414    0.56322    0.85677    1.000
    N935     N        0.13182    0.66518    0.76848    1.000
    Si936    Si       0.14055    0.74772    0.85747    1.000
    N937     N        0.14003    0.70319    0.86602    1.000
    Si938    Si       0.15107    0.73325    0.78349    1.000
    N939     N        0.12253    0.72518    0.75303    1.000
    N940     N        0.12582    0.75209    0.81668    1.000
    Si941    Si       0.13354    0.61337    0.91908    1.000
    N942     N        0.15161    0.52987    0.94333    1.000
    N943     N        0.15729    0.58366    0.89607    1.000
    Si944    Si       0.11253    0.54166    0.92382    1.000
    Si945    Si       0.16306    0.51173    0.98150    1.000
    N946     N        0.10530    0.53740    0.88032    1.000
    N947     N        0.10416    0.58325    0.93235    1.000
    Si948    Si       0.11103    0.68251    0.88944    1.000
    Si949    Si       0.12006    0.68373    0.96405    1.000
    N950     N        0.13360    0.64385    0.94984    1.000
    N951     N        0.11103    0.70634    0.92581    1.000
    N952     N        0.15098    0.70205    0.98855    1.000
    N953     N        0.11974    0.63961    0.88729    1.000
    N954     N        0.14395    0.79422    0.05657    1.000
    Si955    Si       0.14042    0.83144    0.07819    1.000
    Si956    Si       0.11095    0.76900    0.04188    1.000
    N957     N        0.14495    0.82235    0.12025    1.000
    N958     N        0.10836    0.86263    0.07978    1.000
    N959     N        0.13825    0.90686    0.03209    1.000
    Si960    Si       0.16548    0.00530    0.03155    1.000
    N961     N        0.16813    0.96760    0.01123    1.000
    Si962    Si       0.13310    0.78449    0.20738    1.000
    N963     N        0.12852    0.82303    0.18475    1.000
    Si964    Si       0.12202    0.84848    0.22201    1.000
    Si965    Si       0.10923    0.81445    0.14397    1.000
    N966     N        0.11359    0.89420    0.14577    1.000
    N967     N        0.14047    0.88730    0.20968    1.000
    N968     N        0.14946    0.99893    0.12896    1.000
    N969     N        0.12517    0.95378    0.21757    1.000
    Si970    Si       0.10920    0.98784    0.12081    1.000
    Si971    Si       0.14994    0.89258    0.16927    1.000
    Si972    Si       0.13960    0.96205    0.17610    1.000
    Si973    Si       0.13310    0.91717    0.24034    1.000
    Si974    Si       0.10965    0.98785    0.23929    1.000
    Si975    Si       0.12454    0.82038    0.29874    1.000
    N976     N        0.11848    0.85228    0.32681    1.000
    N977     N        0.13864    0.83660    0.25935    1.000
    Si978    Si       0.14720    0.87329    0.35149    1.000
    N979     N        0.13797    0.76411    0.35674    1.000
    N980     N        0.16559    0.80091    0.30673    1.000
    N981     N        0.14421    0.91646    0.35856    1.000
    Si982    Si       0.11617    0.86784    0.48546    1.000
    N983     N        0.15567    0.86005    0.39493    1.000
    Si984    Si       0.12155    0.77788    0.39459    1.000
    N985     N        0.15644    0.79248    0.41643    1.000
    Si986    Si       0.11498    0.84957    0.40720    1.000
    N987     N        0.16222    0.77108    0.48268    1.000
    Si988    Si       0.15606    0.98655    0.47510    1.000
    N989     N        0.15918    0.00310    0.43449    1.000
    Si990    Si       0.14637    0.99377    0.39396    1.000
    Si991    Si       0.11911    0.93120    0.45826    1.000
    N992     N        0.14001    0.90343    0.48342    1.000
    N993     N        0.11900    0.96729    0.48199    1.000
    Si994    Si       0.11346    0.92399    0.38867    1.000
    N995     N        0.14250    0.92424    0.42132    1.000
    N996     N        0.10967    0.97009    0.38590    1.000
    Si997    Si       0.14276    0.82781    0.54649    1.000
    N998     N        0.14678    0.78367    0.54198    1.000
    N999     N        0.13980    0.83592    0.50421    1.000
    Si1000   Si       0.12791    0.79304    0.49879    1.000
    N1001    N        0.15638    0.98062    0.55846    1.000
    Si1002   Si       0.13092    0.94952    0.57376    1.000
    N1003    N        0.13534    0.90573    0.56243    1.000
    N1004    N        0.14191    0.94937    0.61655    1.000
    N1005    N        0.10971    0.81346    0.62012    1.000
    Si1006   Si       0.13076    0.77513    0.62325    1.000
    N1007    N        0.16326    0.85084    0.73154    1.000
    Si1008   Si       0.11546    0.84860    0.64502    1.000
    Si1009   Si       0.14291    0.86786    0.69710    1.000
    N1010    N        0.15775    0.84564    0.65739    1.000
    N1011    N        0.15545    0.90293    0.67588    1.000
    Si1012   Si       0.12506    0.92178    0.64962    1.000
    N1013    N        0.13299    0.96634    0.73606    1.000
    Si1014   Si       0.13909    0.86168    0.76574    1.000
    Si1015   Si       0.13820    0.79250    0.79948    1.000
    N1016    N        0.12045    0.82400    0.77759    1.000
    Si1017   Si       0.13041    0.84673    0.83893    1.000
    N1018    N        0.13935    0.87662    0.80790    1.000
    N1019    N        0.15851    0.81286    0.83443    1.000
    N1020    N        0.14078    0.93078    0.85348    1.000
    Si1021   Si       0.13828    0.91981    0.81319    1.000
    N1022    N        0.11424    0.99557    0.83331    1.000
    Si1023   Si       0.15681    0.93386    0.75133    1.000
    Si1024   Si       0.14235    0.00383    0.86513    1.000
    N1025    N        0.12644    0.90119    0.74703    1.000
    N1026    N        0.13955    0.86724    0.87675    1.000
    N1027    N        0.13616    0.76994    0.94029    1.000
    Si1028   Si       0.14155    0.78989    0.97904    1.000
    Si1029   Si       0.15439    0.86122    0.95935    1.000
    N1030    N        0.11233    0.85987    0.94413    1.000
    N1031    N        0.15745    0.82870    0.98760    1.000
    N1032    N        0.11047    0.76659    0.88256    1.000
    N1033    N        0.10561    0.91719    0.91507    1.000
    Si1034   Si       0.10922    0.94370    0.88319    1.000
    N1035    N        0.11146    0.96401    0.96760    1.000
    N1036    N        0.12662    0.98143    0.89836    1.000
    N1037    N        0.15471    0.90692    0.96760    1.000
    Si1038   Si       0.11432    0.92138    0.95687    1.000
    Si1039   Si       0.19306    0.07311    0.01241    1.000
    Si1040   Si       0.20715    0.03590    0.08532    1.000
    N1041    N        0.20717    0.06663    0.05372    1.000
    N1042    N        0.17525    0.03450    0.99948    1.000
    N1043    N        0.21614    0.13316    0.04906    1.000
    N1044    N        0.19685    0.17566    0.10505    1.000
    Si1045   Si       0.17870    0.14421    0.02652    1.000
    N1046    N        0.18135    0.18170    0.99998    1.000
    N1047    N        0.17962    0.24774    0.11689    1.000
    Si1048   Si       0.21177    0.21473    0.12106    1.000
    N1049    N        0.19762    0.05210    0.12526    1.000
    N1050    N        0.19710    0.08826    0.23567    1.000
    Si1051   Si       0.19297    0.11246    0.19867    1.000
    N1052    N        0.21477    0.02026    0.23276    1.000
    Si1053   Si       0.17455    0.01971    0.21717    1.000
    N1054    N        0.20595    0.15072    0.21519    1.000
    Si1055   Si       0.19453    0.18348    0.18900    1.000
    N1056    N        0.22294    0.20770    0.16492    1.000
    N1057    N        0.18390    0.21824    0.21722    1.000
    Si1058   Si       0.21706    0.24444    0.19258    1.000
    N1059    N        0.19826    0.04167    0.34831    1.000
    Si1060   Si       0.20967    0.07091    0.31818    1.000
    Si1061   Si       0.20003    0.12410    0.36289    1.000
    N1062    N        0.17222    0.06824    0.29268    1.000
    Si1063   Si       0.20437    0.25809    0.32279    1.000
    N1064    N        0.17927    0.13781    0.27924    1.000
    N1065    N        0.19173    0.16316    0.34647    1.000
    Si1066   Si       0.18358    0.21050    0.26050    1.000
    N1067    N        0.20242    0.24726    0.28074    1.000
    N1068    N        0.21257    0.22962    0.35380    1.000
    Si1069   Si       0.21824    0.14665    0.25701    1.000
    N1070    N        0.22237    0.18938    0.26571    1.000
    N1071    N        0.21518    0.02500    0.46048    1.000
    Si1072   Si       0.17514    0.05761    0.38000    1.000
    N1073    N        0.20034    0.06089    0.41391    1.000
    Si1074   Si       0.18132    0.10879    0.42185    1.000
    Si1075   Si       0.17590    0.04365    0.45140    1.000
    N1076    N        0.21655    0.12730    0.40395    1.000
    Si1077   Si       0.19509    0.17595    0.45387    1.000
    Si1078   Si       0.18549    0.25071    0.45196    1.000
    Si1079   Si       0.21627    0.23504    0.39653    1.000
    N1080    N        0.19744    0.21326    0.43151    1.000
    N1081    N        0.18043    0.18620    0.49575    1.000
    N1082    N        0.20272    0.09472    0.56966    1.000
    N1083    N        0.17421    0.10958    0.51702    1.000
    Si1084   Si       0.21427    0.10762    0.53110    1.000
    Si1085   Si       0.17615    0.01734    0.57271    1.000
    N1086    N        0.21852    0.01689    0.56295    1.000
    N1087    N        0.17779    0.01353    0.61684    1.000
    N1088    N        0.19042    0.18203    0.57308    1.000
    Si1089   Si       0.20542    0.18448    0.53213    1.000
    Si1090   Si       0.20393    0.16631    0.61167    1.000
    N1091    N        0.18243    0.24436    0.60417    1.000
    N1092    N        0.22514    0.22461    0.52986    1.000
    N1093    N        0.21535    0.02590    0.67377    1.000
    N1094    N        0.21356    0.08032    0.63973    1.000
    Si1095   Si       0.17719    0.10617    0.66638    1.000
    Si1096   Si       0.18721    0.04462    0.64528    1.000
    N1097    N        0.20759    0.09471    0.69948    1.000
    N1098    N        0.17509    0.02097    0.73023    1.000
    Si1099   Si       0.19927    0.07830    0.73996    1.000
    Si1100   Si       0.22158    0.23735    0.62290    1.000
    N1101    N        0.21436    0.19792    0.63920    1.000
    N1102    N        0.19041    0.23655    0.69568    1.000
    N1103    N        0.17709    0.13409    0.63042    1.000
    N1104    N        0.20398    0.16716    0.70314    1.000
    Si1105   Si       0.21394    0.20365    0.68283    1.000
    Si1106   Si       0.20841    0.01447    0.76067    1.000
    Si1107   Si       0.18451    0.12776    0.77732    1.000
    N1108    N        0.22024    0.11710    0.75642    1.000
    N1109    N        0.19998    0.00581    0.79990    1.000
    N1110    N        0.18511    0.13543    0.81874    1.000
    Si1111   Si       0.18359    0.21918    0.83647    1.000
    N1112    N        0.21386    0.19898    0.80981    1.000
    N1113    N        0.18849    0.25482    0.81022    1.000
    Si1114   Si       0.22134    0.16019    0.82742    1.000
    N1115    N        0.20112    0.07763    0.87666    1.000
    Si1116   Si       0.21633    0.07705    0.94267    1.000
    N1117    N        0.17351    0.06669    0.93637    1.000
    N1118    N        0.22489    0.08023    0.98539    1.000
    N1119    N        0.22678    0.11488    0.92570    1.000
    N1120    N        0.22762    0.17995    0.94255    1.000
    N1121    N        0.18242    0.23813    0.93174    1.000
    N1122    N        0.20422    0.22000    0.87533    1.000
    N1123    N        0.22426    0.15636    0.87238    1.000
    Si1124   Si       0.20948    0.25427    0.90140    1.000
    Si1125   Si       0.20798    0.18249    0.90261    1.000
    Si1126   Si       0.21836    0.19657    0.98184    1.000
    Si1127   Si       0.17622    0.28586    0.09557    1.000
    N1128    N        0.21286    0.36113    0.10035    1.000
    N1129    N        0.21804    0.29207    0.08304    1.000
    Si1130   Si       0.16340    0.35636    0.11153    1.000
    N1131    N        0.19851    0.43927    0.08935    1.000
    Si1132   Si       0.20134    0.39645    0.07981    1.000
    N1133    N        0.21428    0.47548    0.03062    1.000
    N1134    N        0.17841    0.50249    0.10494    1.000
    N1135    N        0.19741    0.28180    0.18246    1.000
    N1136    N        0.20529    0.34910    0.19285    1.000
    Si1137   Si       0.20428    0.31957    0.16087    1.000
    N1138    N        0.17359    0.31647    0.12787    1.000
    N1139    N        0.16872    0.38816    0.14418    1.000
    Si1140   Si       0.19627    0.38915    0.17726    1.000
    N1141    N        0.18232    0.41051    0.21258    1.000
    Si1142   Si       0.22162    0.41973    0.23256    1.000
    Si1143   Si       0.19419    0.46677    0.12309    1.000
    N1144    N        0.20968    0.34762    0.32614    1.000
    N1145    N        0.21555    0.31833    0.26000    1.000
    Si1146   Si       0.20114    0.28029    0.24875    1.000
    Si1147   Si       0.20353    0.34366    0.36801    1.000
    N1148    N        0.17470    0.38459    0.28554    1.000
    N1149    N        0.21075    0.44345    0.26614    1.000
    Si1150   Si       0.20266    0.39042    0.32296    1.000
    N1151    N        0.18135    0.42969    0.32476    1.000
    Si1152   Si       0.17347    0.42948    0.28217    1.000
    N1153    N        0.17815    0.48221    0.36368    1.000
    Si1154   Si       0.22465    0.48341    0.27764    1.000
    N1155    N        0.19870    0.38930    0.37281    1.000
    N1156    N        0.16984    0.31697    0.37088    1.000
    N1157    N        0.20520    0.27225    0.48413    1.000
    N1158    N        0.19016    0.33541    0.46788    1.000
    N1159    N        0.19810    0.27352    0.41456    1.000
    Si1160   Si       0.16813    0.37179    0.46845    1.000
    Si1161   Si       0.19087    0.48215    0.40547    1.000
    N1162    N        0.20048    0.43859    0.41519    1.000
    Si1163   Si       0.20984    0.43194    0.45775    1.000
    N1164    N        0.20106    0.39697    0.48075    1.000
    Si1165   Si       0.16794    0.41287    0.39674    1.000
    N1166    N        0.19106    0.46175    0.48106    1.000
    N1167    N        0.20066    0.35105    0.53678    1.000
    N1168    N        0.17979    0.32052    0.58797    1.000
    Si1169   Si       0.19487    0.26524    0.52560    1.000
    Si1170   Si       0.21945    0.32442    0.56675    1.000
    Si1171   Si       0.16345    0.28309    0.60421    1.000
    N1172    N        0.19795    0.38228    0.60462    1.000
    N1173    N        0.17549    0.50574    0.61331    1.000
    N1174    N        0.20137    0.49259    0.54139    1.000
    Si1175   Si       0.19145    0.41962    0.58232    1.000
    Si1176   Si       0.17555    0.46256    0.52212    1.000
    N1177    N        0.16729    0.42591    0.54522    1.000
    N1178    N        0.16553    0.43737    0.61601    1.000
    Si1179   Si       0.17972    0.34567    0.62462    1.000
    N1180    N        0.17011    0.29814    0.64579    1.000
    Si1181   Si       0.21343    0.30060    0.66314    1.000
    N1182    N        0.19226    0.36440    0.73707    1.000
    Si1183   Si       0.20261    0.26682    0.72414    1.000
    N1184    N        0.21326    0.30461    0.70734    1.000
    N1185    N        0.21701    0.33995    0.64648    1.000
    Si1186   Si       0.20558    0.39973    0.71615    1.000
    N1187    N        0.18744    0.50445    0.73717    1.000
    N1188    N        0.18725    0.40418    0.67806    1.000
    Si1189   Si       0.18496    0.47135    0.63554    1.000
    N1190    N        0.21438    0.43377    0.74347    1.000
    N1191    N        0.16793    0.47485    0.67520    1.000
    Si1192   Si       0.20086    0.29737    0.81845    1.000
    N1193    N        0.21442    0.32458    0.78638    1.000
    Si1194   Si       0.18855    0.35739    0.78208    1.000
    N1195    N        0.19251    0.39370    0.80461    1.000
    Si1196   Si       0.18339    0.46436    0.75267    1.000
    N1197    N        0.22703    0.41201    0.86270    1.000
    N1198    N        0.16789    0.46430    0.79465    1.000
    Si1199   Si       0.19157    0.26193    0.96784    1.000
    N1200    N        0.20028    0.30170    0.95735    1.000
    Si1201   Si       0.19510    0.32874    0.92013    1.000
    N1202    N        0.19306    0.29204    0.88919    1.000
    N1203    N        0.18971    0.36053    0.95138    1.000
    Si1204   Si       0.19073    0.33182    0.98518    1.000
    N1205    N        0.20802    0.41384    0.99004    1.000
    Si1206   Si       0.19442    0.50076    0.87257    1.000
    Si1207   Si       0.18972    0.40177    0.95042    1.000
    N1208    N        0.18880    0.46642    0.90016    1.000
    N1209    N        0.22462    0.41173    0.92618    1.000
    Si1210   Si       0.20474    0.45693    0.99158    1.000
    Si1211   Si       0.20559    0.53630    0.09821    1.000
    N1212    N        0.20639    0.54722    0.05536    1.000
    N1213    N        0.20844    0.61846    0.06970    1.000
    Si1214   Si       0.20060    0.58675    0.04094    1.000
    Si1215   Si       0.22333    0.51736    0.02679    1.000
    N1216    N        0.18285    0.73425    0.05170    1.000
    Si1217   Si       0.19958    0.66287    0.06865    1.000
    N1218    N        0.19501    0.68696    0.10529    1.000
    Si1219   Si       0.18859    0.72917    0.09714    1.000
    N1220    N        0.22592    0.74743    0.11340    1.000
    N1221    N        0.18680    0.56420    0.12591    1.000
    Si1222   Si       0.18135    0.52240    0.23328    1.000
    Si1223   Si       0.17934    0.59869    0.22648    1.000
    N1224    N        0.20612    0.58809    0.19429    1.000
    Si1225   Si       0.20715    0.59515    0.15066    1.000
    N1226    N        0.21801    0.52143    0.21131    1.000
    N1227    N        0.18536    0.63140    0.14578    1.000
    N1228    N        0.20861    0.73548    0.18114    1.000
    Si1229   Si       0.20503    0.74808    0.22935    1.000
    N1230    N        0.16713    0.68326    0.16988    1.000
    Si1231   Si       0.16812    0.72269    0.18742    1.000
    N1232    N        0.16696    0.72343    0.23050    1.000
    Si1233   Si       0.20088    0.67155    0.14338    1.000
    N1234    N        0.19809    0.54482    0.33232    1.000
    N1235    N        0.19806    0.62332    0.25731    1.000
    Si1236   Si       0.21386    0.58322    0.34827    1.000
    Si1237   Si       0.17683    0.54526    0.29317    1.000
    N1238    N        0.17489    0.56134    0.25160    1.000
    N1239    N        0.18990    0.61330    0.36769    1.000
    Si1240   Si       0.21155    0.50783    0.34952    1.000
    N1241    N        0.18765    0.50714    0.27452    1.000
    Si1242   Si       0.17400    0.64867    0.28408    1.000
    Si1243   Si       0.17466    0.70643    0.32608    1.000
    N1244    N        0.19784    0.68431    0.29457    1.000
    N1245    N        0.20079    0.73814    0.34126    1.000
    N1246    N        0.21346    0.74969    0.27299    1.000
    Si1247   Si       0.19061    0.61476    0.41059    1.000
    N1248    N        0.18696    0.57312    0.42733    1.000
    N1249    N        0.17841    0.53226    0.48691    1.000
    N1250    N        0.22231    0.63240    0.48719    1.000
    Si1251   Si       0.16967    0.68402    0.45284    1.000
    N1252    N        0.21277    0.69122    0.44928    1.000
    Si1253   Si       0.17022    0.76230    0.44362    1.000
    Si1254   Si       0.20013    0.53216    0.52384    1.000
    N1255    N        0.17903    0.62236    0.54180    1.000
    N1256    N        0.17356    0.58428    0.61419    1.000
    N1257    N        0.17083    0.54575    0.55562    1.000
    Si1258   Si       0.17268    0.58597    0.57007    1.000
    Si1259   Si       0.17973    0.62965    0.49941    1.000
    N1260    N        0.19668    0.74288    0.56174    1.000
    N1261    N        0.20479    0.64825    0.60457    1.000
    Si1262   Si       0.19670    0.65646    0.56299    1.000
    N1263    N        0.21756    0.73914    0.49946    1.000
    Si1264   Si       0.16589    0.71816    0.58380    1.000
    Si1265   Si       0.19409    0.57041    0.65130    1.000
    N1266    N        0.20017    0.53225    0.67057    1.000
    Si1267   Si       0.17144    0.51346    0.69655    1.000
    N1268    N        0.16498    0.57859    0.73993    1.000
    N1269    N        0.18191    0.71127    0.62202    1.000
    Si1270   Si       0.20159    0.74236    0.64424    1.000
    N1271    N        0.20849    0.66475    0.67472    1.000
    Si1272   Si       0.21491    0.69500    0.70520    1.000
    N1273    N        0.21489    0.73486    0.68604    1.000
    Si1274   Si       0.18912    0.67067    0.63702    1.000
    N1275    N        0.18867    0.69006    0.73922    1.000
    Si1276   Si       0.20150    0.62314    0.82495    1.000
    N1277    N        0.20007    0.58206    0.84071    1.000
    Si1278   Si       0.20165    0.60021    0.75397    1.000
    N1279    N        0.21573    0.55671    0.76599    1.000
    Si1280   Si       0.17419    0.54094    0.75813    1.000
    N1281    N        0.19198    0.63169    0.78234    1.000
    N1282    N        0.16622    0.51965    0.84652    1.000
    Si1283   Si       0.17238    0.68650    0.84479    1.000
    Si1284   Si       0.17442    0.66942    0.77139    1.000
    N1285    N        0.17351    0.70225    0.80396    1.000
    N1286    N        0.16772    0.64329    0.84228    1.000
    N1287    N        0.20951    0.69315    0.86898    1.000
    Si1288   Si       0.18140    0.55646    0.92366    1.000
    N1289    N        0.19763    0.58428    0.94963    1.000
    N1290    N        0.20591    0.53797    0.89312    1.000
    N1291    N        0.20196    0.52883    0.99021    1.000
    Si1292   Si       0.22404    0.56486    0.97770    1.000
    Si1293   Si       0.21066    0.72998    0.89012    1.000
    Si1294   Si       0.18324    0.72906    0.97359    1.000
    N1295    N        0.19169    0.72670    0.92995    1.000
    N1296    N        0.22033    0.72103    0.99372    1.000
    N1297    N        0.21181    0.80605    0.04498    1.000
    Si1298   Si       0.18040    0.77585    0.03797    1.000
    N1299    N        0.17314    0.85896    0.06494    1.000
    Si1300   Si       0.21349    0.84392    0.06688    1.000
    N1301    N        0.21765    0.83299    0.10920    1.000
    Si1302   Si       0.17007    0.92592    0.00440    1.000
    N1303    N        0.18343    0.00208    0.07124    1.000
    Si1304   Si       0.17254    0.90301    0.06187    1.000
    N1305    N        0.17565    0.92865    0.09663    1.000
    Si1306   Si       0.17884    0.97261    0.10576    1.000
    N1307    N        0.20381    0.91139    0.03082    1.000
    N1308    N        0.17410    0.79001    0.22773    1.000
    N1309    N        0.20704    0.84872    0.22198    1.000
    Si1310   Si       0.20553    0.80895    0.20365    1.000
    N1311    N        0.18568    0.87292    0.15551    1.000
    Si1312   Si       0.18357    0.83108    0.13720    1.000
    N1313    N        0.20001    0.79852    0.16283    1.000
    Si1314   Si       0.21720    0.87383    0.18655    1.000
    N1315    N        0.21484    0.96332    0.13166    1.000
    N1316    N        0.16760    0.93180    0.16182    1.000
    N1317    N        0.17343    0.98769    0.18863    1.000
    Si1318   Si       0.20444    0.95788    0.17514    1.000
    Si1319   Si       0.19943    0.91106    0.13108    1.000
    Si1320   Si       0.20170    0.83134    0.32188    1.000
    N1321    N        0.17945    0.86890    0.32275    1.000
    Si1322   Si       0.17644    0.77529    0.34000    1.000
    Si1323   Si       0.17593    0.81248    0.26436    1.000
    N1324    N        0.19472    0.80804    0.36277    1.000
    N1325    N        0.21696    0.81928    0.28057    1.000
    N1326    N        0.19891    0.93598    0.32239    1.000
    Si1327   Si       0.18341    0.93724    0.36309    1.000
    Si1328   Si       0.19247    0.90084    0.29723    1.000
    Si1329   Si       0.19028    0.95771    0.28504    1.000
    N1330    N        0.17893    0.99622    0.30231    1.000
    Si1331   Si       0.20399    0.99736    0.33869    1.000
    N1332    N        0.18090    0.97954    0.37213    1.000
    N1333    N        0.16814    0.92329    0.26666    1.000
    N1334    N        0.21277    0.83501    0.42706    1.000
    Si1335   Si       0.18008    0.82345    0.39891    1.000
    N1336    N        0.21355    0.76163    0.43664    1.000
    N1337    N        0.20098    0.89547    0.45522    1.000
    N1338    N        0.18838    0.95960    0.48560    1.000
    N1339    N        0.20409    0.91393    0.39472    1.000
    Si1340   Si       0.18124    0.91594    0.49047    1.000
    Si1341   Si       0.17449    0.89413    0.41900    1.000
    N1342    N        0.17556    0.84560    0.56597    1.000
    Si1343   Si       0.18670    0.76870    0.52088    1.000
    N1344    N        0.21712    0.80248    0.52649    1.000
    Si1345   Si       0.21711    0.83144    0.56149    1.000
    Si1346   Si       0.17549    0.89107    0.56849    1.000
    N1347    N        0.19540    0.89433    0.60715    1.000
    N1348    N        0.19367    0.89872    0.52899    1.000
    N1349    N        0.21369    0.95988    0.61025    1.000
    Si1350   Si       0.18605    0.81236    0.65750    1.000
    N1351    N        0.19652    0.80025    0.69808    1.000
    Si1352   Si       0.20378    0.83367    0.72450    1.000
    Si1353   Si       0.18904    0.87621    0.64679    1.000
    N1354    N        0.17142    0.77694    0.63688    1.000
    N1355    N        0.21689    0.84175    0.64393    1.000
    N1356    N        0.21864    0.90776    0.66392    1.000
    Si1357   Si       0.22615    0.90102    0.74271    1.000
    Si1358   Si       0.19592    0.99620    0.70086    1.000
    N1359    N        0.19075    0.92241    0.72936    1.000
    Si1360   Si       0.18815    0.92889    0.68685    1.000
    N1361    N        0.18157    0.96845    0.67250    1.000
    Si1362   Si       0.17654    0.97269    0.62897    1.000
    Si1363   Si       0.19746    0.79646    0.84856    1.000
    Si1364   Si       0.21114    0.78102    0.77514    1.000
    N1365    N        0.21943    0.82063    0.76216    1.000
    N1366    N        0.16946    0.77257    0.77833    1.000
    N1367    N        0.21585    0.82964    0.87234    1.000
    Si1368   Si       0.21390    0.99612    0.83862    1.000
    N1369    N        0.20184    0.89693    0.84754    1.000
    Si1370   Si       0.20671    0.92483    0.81515    1.000
    N1371    N        0.17161    0.93657    0.79219    1.000
    N1372    N        0.18433    0.99327    0.86859    1.000
    N1373    N        0.18047    0.76170    0.87421    1.000
    N1374    N        0.18951    0.86562    0.93607    1.000
    N1375    N        0.20293    0.79425    0.92840    1.000
    Si1376   Si       0.17213    0.76636    0.91844    1.000
    Si1377   Si       0.21240    0.83504    0.91458    1.000
    N1378    N        0.17260    0.76513    0.99722    1.000
    Si1379   Si       0.19176    0.90976    0.94151    1.000
    Si1380   Si       0.21762    0.97689    0.95992    1.000
    N1381    N        0.21510    0.93512    0.96846    1.000
    N1382    N        0.18129    0.92800    0.90679    1.000
    N1383    N        0.18090    0.99380    0.94313    1.000
    Si1384   Si       0.18807    0.97298    0.90464    1.000
    Si1385   Si       0.16685    0.90208    0.87441    1.000
    N1386    N        0.24931    0.03291    0.09142    1.000
    N1387    N        0.24279    0.10882    0.10364    1.000
    Si1388   Si       0.23804    0.09522    0.06023    1.000
    N1389    N        0.27369    0.08620    0.03743    1.000
    N1390    N        0.24420    0.22580    0.09417    1.000
    N1391    N        0.26752    0.16496    0.09280    1.000
    Si1392   Si       0.26317    0.23815    0.00235    1.000
    N1393    N        0.25727    0.19393    0.00569    1.000
    Si1394   Si       0.22678    0.14940    0.08869    1.000
    N1395    N        0.22301    0.10393    0.16891    1.000
    N1396    N        0.26779    0.06573    0.15589    1.000
    Si1397   Si       0.23038    0.07762    0.13508    1.000
    Si1398   Si       0.26741    0.10545    0.17723    1.000
    N1399    N        0.26969    0.06405    0.23901    1.000
    Si1400   Si       0.26773    0.21633    0.16857    1.000
    N1401    N        0.28494    0.19851    0.20551    1.000
    N1402    N        0.23804    0.05070    0.29248    1.000
    Si1403   Si       0.26570    0.02861    0.31797    1.000
    N1404    N        0.25199    0.12455    0.27312    1.000
    N1405    N        0.27051    0.05290    0.35293    1.000
    Si1406   Si       0.26079    0.13024    0.31910    1.000
    Si1407   Si       0.28256    0.10487    0.25082    1.000
    N1408    N        0.22648    0.10689    0.33275    1.000
    Si1409   Si       0.22823    0.05839    0.25131    1.000
    Si1410   Si       0.22651    0.18714    0.35404    1.000
    N1411    N        0.25812    0.17397    0.32686    1.000
    Si1412   Si       0.23956    0.22972    0.26514    1.000
    N1413    N        0.28119    0.22305    0.27601    1.000
    Si1414   Si       0.23968    0.04796    0.43173    1.000
    N1415    N        0.26604    0.01694    0.41255    1.000
    N1416    N        0.26671    0.07862    0.44540    1.000
    Si1417   Si       0.27255    0.08168    0.48863    1.000
    N1418    N        0.23771    0.16226    0.45825    1.000
    Si1419   Si       0.25070    0.15487    0.41610    1.000
    Si1420   Si       0.28084    0.21810    0.38225    1.000
    Si1421   Si       0.25887    0.15953    0.49447    1.000
    N1422    N        0.24621    0.19321    0.39261    1.000
    N1423    N        0.23823    0.07223    0.51421    1.000
    Si1424   Si       0.24572    0.03187    0.53373    1.000
    N1425    N        0.27015    0.08887    0.60180    1.000
    N1426    N        0.25871    0.01573    0.61900    1.000
    Si1427   Si       0.22768    0.10093    0.60527    1.000
    N1428    N        0.28265    0.03920    0.55745    1.000
    N1429    N        0.28256    0.12285    0.50089    1.000
    Si1430   Si       0.25478    0.25000    0.55034    1.000
    N1431    N        0.24108    0.14430    0.60765    1.000
    N1432    N        0.25367    0.24056    0.59398    1.000
    N1433    N        0.22891    0.15087    0.52485    1.000
    Si1434   Si       0.24082    0.08161    0.67380    1.000
    N1435    N        0.25934    0.12046    0.68223    1.000
    Si1436   Si       0.25539    0.01446    0.66315    1.000
    N1437    N        0.27457    0.05439    0.66705    1.000
    Si1438   Si       0.23062    0.13383    0.71548    1.000
    Si1439   Si       0.27153    0.25187    0.68014    1.000
    Si1440   Si       0.28095    0.18744    0.71721    1.000
    N1441    N        0.25813    0.15953    0.73917    1.000
    N1442    N        0.25626    0.21306    0.69311    1.000
    N1443    N        0.24577    0.02543    0.85071    1.000
    Si1444   Si       0.27287    0.05896    0.75907    1.000
    N1445    N        0.23110    0.05073    0.75378    1.000
    Si1446   Si       0.25921    0.13041    0.77064    1.000
    N1447    N        0.26083    0.09169    0.86864    1.000
    N1448    N        0.25895    0.14462    0.81351    1.000
    N1449    N        0.26765    0.25257    0.79723    1.000
    N1450    N        0.23018    0.24672    0.75049    1.000
    Si1451   Si       0.27531    0.24955    0.75333    1.000
    Si1452   Si       0.22808    0.23647    0.79258    1.000
    Si1453   Si       0.27172    0.03222    0.94960    1.000
    N1454    N        0.24454    0.04961    0.92202    1.000
    Si1455   Si       0.23801    0.05546    0.87957    1.000
    N1456    N        0.27040    0.13180    0.98119    1.000
    Si1457   Si       0.26746    0.09185    0.99575    1.000
    Si1458   Si       0.22648    0.11532    0.88283    1.000
    N1459    N        0.22666    0.24033    0.98111    1.000
    Si1460   Si       0.25407    0.14430    0.94275    1.000
    Si1461   Si       0.26756    0.33471    0.01689    1.000
    N1462    N        0.26451    0.33777    0.05856    1.000
    Si1463   Si       0.24098    0.32870    0.09251    1.000
    Si1464   Si       0.25119    0.26500    0.07531    1.000
    N1465    N        0.27899    0.37878    0.10556    1.000
    N1466    N        0.26590    0.26645    0.03447    1.000
    Si1467   Si       0.27083    0.38251    0.06033    1.000
    N1468    N        0.27507    0.38113    0.00973    1.000
    N1469    N        0.28260    0.28181    0.10257    1.000
    N1470    N        0.22525    0.34257    0.00745    1.000
    Si1471   Si       0.23228    0.38490    0.00902    1.000
    N1472    N        0.26881    0.45964    0.07250    1.000
    Si1473   Si       0.26491    0.48710    0.10745    1.000
    N1474    N        0.23356    0.40283    0.05117    1.000
    Si1475   Si       0.23015    0.44780    0.05892    1.000
    Si1476   Si       0.27070    0.28891    0.14372    1.000
    N1477    N        0.24538    0.32505    0.14149    1.000
    N1478    N        0.26176    0.32057    0.21303    1.000
    Si1479   Si       0.25907    0.36765    0.14317    1.000
    Si1480   Si       0.26879    0.27907    0.21069    1.000
    Si1481   Si       0.22858    0.34531    0.22745    1.000
    N1482    N        0.25798    0.25795    0.17210    1.000
    N1483    N        0.23646    0.25522    0.23070    1.000
    N1484    N        0.23486    0.39886    0.15950    1.000
    Si1485   Si       0.24717    0.49035    0.21201    1.000
    N1486    N        0.24176    0.44718    0.20460    1.000
    N1487    N        0.23688    0.46745    0.13432    1.000
    Si1488   Si       0.25223    0.43699    0.16408    1.000
    N1489    N        0.24137    0.38254    0.24292    1.000
    N1490    N        0.27090    0.34167    0.29499    1.000
    Si1491   Si       0.27013    0.27144    0.34881    1.000
    N1492    N        0.23752    0.28480    0.32424    1.000
    Si1493   Si       0.23190    0.32173    0.29954    1.000
    Si1494   Si       0.26497    0.38320    0.28017    1.000
    N1495    N        0.24385    0.40505    0.31328    1.000
    Si1496   Si       0.25169    0.44648    0.32565    1.000
    N1497    N        0.25842    0.49737    0.25473    1.000
    N1498    N        0.23427    0.48689    0.31995    1.000
    N1499    N        0.25299    0.44995    0.37010    1.000
    Si1500   Si       0.22538    0.30990    0.47441    1.000
    N1501    N        0.23934    0.32957    0.38922    1.000
    N1502    N        0.25762    0.29488    0.44850    1.000
    Si1503   Si       0.27280    0.35555    0.39569    1.000
    Si1504   Si       0.23935    0.29261    0.41027    1.000
    N1505    N        0.25912    0.25888    0.38906    1.000
    N1506    N        0.25325    0.43904    0.45872    1.000
    Si1507   Si       0.27237    0.46243    0.48705    1.000
    N1508    N        0.25895    0.39526    0.40789    1.000
    Si1509   Si       0.26613    0.48676    0.39098    1.000
    Si1510   Si       0.22860    0.41754    0.38643    1.000
    Si1511   Si       0.28108    0.42802    0.42769    1.000
    N1512    N        0.25209    0.34119    0.59108    1.000
    N1513    N        0.25181    0.34011    0.49423    1.000
    Si1514   Si       0.22443    0.37290    0.50878    1.000
    N1515    N        0.22688    0.28538    0.54674    1.000
    N1516    N        0.26081    0.39029    0.52829    1.000
    Si1517   Si       0.23822    0.47890    0.55976    1.000
    N1518    N        0.25900    0.45881    0.52914    1.000
    N1519    N        0.22729    0.44613    0.58532    1.000
    Si1520   Si       0.23624    0.36989    0.62035    1.000
    N1521    N        0.23577    0.26505    0.65420    1.000
    Si1522   Si       0.22828    0.34191    0.72753    1.000
    N1523    N        0.26567    0.33662    0.74763    1.000
    N1524    N        0.24347    0.38153    0.70772    1.000
    Si1525   Si       0.26979    0.40109    0.67998    1.000
    Si1526   Si       0.25270    0.44355    0.62139    1.000
    N1527    N        0.24803    0.50046    0.71210    1.000
    N1528    N        0.25876    0.40329    0.63674    1.000
    N1529    N        0.22684    0.46971    0.64440    1.000
    Si1530   Si       0.23408    0.50465    0.67074    1.000
    Si1531   Si       0.25748    0.33205    0.79033    1.000
    N1532    N        0.25609    0.36424    0.81868    1.000
    N1533    N        0.23883    0.29333    0.83833    1.000
    Si1534   Si       0.27883    0.27959    0.82944    1.000
    N1535    N        0.22684    0.48035    0.85323    1.000
    N1536    N        0.23614    0.48474    0.78104    1.000
    Si1537   Si       0.25379    0.47324    0.81853    1.000
    N1538    N        0.25856    0.42863    0.80446    1.000
    Si1539   Si       0.24899    0.44517    0.76431    1.000
    Si1540   Si       0.23025    0.39931    0.82197    1.000
    Si1541   Si       0.24261    0.30588    0.88036    1.000
    N1542    N        0.25137    0.26990    0.90334    1.000
    N1543    N        0.23016    0.34241    0.89987    1.000
    N1544    N        0.28555    0.31957    0.87243    1.000
    Si1545   Si       0.24112    0.38453    0.89720    1.000
    Si1546   Si       0.22641    0.45059    0.88494    1.000
    N1547    N        0.28290    0.38422    0.88921    1.000
    N1548    N        0.23623    0.47043    0.96612    1.000
    N1549    N        0.26309    0.46127    0.90730    1.000
    Si1550   Si       0.25604    0.43895    0.94515    1.000
    Si1551   Si       0.24683    0.61411    0.09008    1.000
    N1552    N        0.24906    0.52644    0.10242    1.000
    N1553    N        0.23402    0.58997    0.01301    1.000
    N1554    N        0.27073    0.58624    0.06939    1.000
    Si1555   Si       0.27467    0.60015    0.02795    1.000
    N1556    N        0.26530    0.51873    0.01248    1.000
    Si1557   Si       0.28314    0.55257    0.09443    1.000
    N1558    N        0.23444    0.68321    0.05047    1.000
    N1559    N        0.27107    0.65086    0.09525    1.000
    N1560    N        0.24998    0.75534    0.04828    1.000
    Si1561   Si       0.27680    0.67089    0.05376    1.000
    Si1562   Si       0.22536    0.72295    0.03735    1.000
    Si1563   Si       0.23714    0.56113    0.20893    1.000
    N1564    N        0.27023    0.56364    0.18284    1.000
    N1565    N        0.24527    0.60073    0.13066    1.000
    N1566    N        0.24236    0.67547    0.15827    1.000
    N1567    N        0.23518    0.70746    0.23096    1.000
    Si1568   Si       0.24261    0.70829    0.18870    1.000
    N1569    N        0.27243    0.73727    0.18231    1.000
    Si1570   Si       0.27794    0.66114    0.13682    1.000
    N1571    N        0.23657    0.59962    0.31391    1.000
    Si1572   Si       0.23498    0.60735    0.27007    1.000
    Si1573   Si       0.27433    0.53910    0.26263    1.000
    N1574    N        0.24953    0.57245    0.25043    1.000
    Si1575   Si       0.26837    0.63090    0.31653    1.000
    N1576    N        0.26209    0.64371    0.27431    1.000
    N1577    N        0.26345    0.64499    0.35960    1.000
    Si1578   Si       0.24204    0.73690    0.33926    1.000
    N1579    N        0.26192    0.71609    0.30381    1.000
    Si1580   Si       0.23051    0.70763    0.27301    1.000
    N1581    N        0.25325    0.55197    0.44552    1.000
    Si1582   Si       0.25895    0.61529    0.39249    1.000
    N1583    N        0.24038    0.57590    0.38085    1.000
    Si1584   Si       0.27015    0.53995    0.48509    1.000
    N1585    N        0.23038    0.63133    0.41908    1.000
    Si1586   Si       0.22204    0.55164    0.41356    1.000
    N1587    N        0.22576    0.50892    0.39473    1.000
    N1588    N        0.27077    0.72789    0.44408    1.000
    Si1589   Si       0.27956    0.68396    0.37428    1.000
    N1590    N        0.27346    0.66898    0.47434    1.000
    Si1591   Si       0.23087    0.72883    0.46059    1.000
    Si1592   Si       0.23839    0.65652    0.45221    1.000
    N1593    N        0.26115    0.72348    0.37478    1.000
    Si1594   Si       0.27844    0.75078    0.40524    1.000
    Si1595   Si       0.25531    0.55287    0.55849    1.000
    N1596    N        0.24274    0.54325    0.51742    1.000
    Si1597   Si       0.23073    0.61239    0.60791    1.000
    N1598    N        0.25553    0.51590    0.57936    1.000
    N1599    N        0.22998    0.58019    0.57945    1.000
    N1600    N        0.27961    0.62926    0.53441    1.000
    N1601    N        0.26987    0.63268    0.60373    1.000
    Si1602   Si       0.28027    0.51096    0.61446    1.000
    Si1603   Si       0.25248    0.65239    0.51017    1.000
    N1604    N        0.25812    0.74034    0.55612    1.000
    N1605    N        0.22945    0.67576    0.54043    1.000
    Si1606   Si       0.22524    0.71812    0.53619    1.000
    Si1607   Si       0.23055    0.62732    0.68107    1.000
    Si1608   Si       0.26717    0.57255    0.66597    1.000
    N1609    N        0.26285    0.53007    0.65067    1.000
    N1610    N        0.23058    0.59425    0.65039    1.000
    Si1611   Si       0.26754    0.60142    0.73817    1.000
    N1612    N        0.22920    0.61583    0.72392    1.000
    N1613    N        0.27786    0.57205    0.70799    1.000
    Si1614   Si       0.27652    0.75632    0.63477    1.000
    N1615    N        0.23683    0.74833    0.62031    1.000
    N1616    N        0.25576    0.69069    0.72269    1.000
    N1617    N        0.27130    0.64051    0.67473    1.000
    Si1618   Si       0.25348    0.56114    0.79219    1.000
    N1619    N        0.25857    0.55098    0.83205    1.000
    N1620    N        0.26378    0.60080    0.78257    1.000
    Si1621   Si       0.27759    0.62826    0.81377    1.000
    Si1622   Si       0.22923    0.56294    0.86410    1.000
    Si1623   Si       0.23499    0.51634    0.74977    1.000
    N1624    N        0.27653    0.53668    0.76310    1.000
    N1625    N        0.24149    0.63854    0.83559    1.000
    N1626    N        0.26894    0.72707    0.79058    1.000
    N1627    N        0.27389    0.69928    0.85105    1.000
    Si1628   Si       0.24561    0.66944    0.86499    1.000
    Si1629   Si       0.26146    0.72540    0.74882    1.000
    N1630    N        0.22992    0.75441    0.74718    1.000
    N1631    N        0.25652    0.54788    0.95501    1.000
    N1632    N        0.25252    0.58806    0.89066    1.000
    Si1633   Si       0.27368    0.56228    0.91936    1.000
    Si1634   Si       0.26115    0.50733    0.97113    1.000
    N1635    N        0.27917    0.68822    0.95834    1.000
    N1636    N        0.27361    0.65500    0.89812    1.000
    Si1637   Si       0.26149    0.72131    0.97925    1.000
    N1638    N        0.24898    0.75058    0.89513    1.000
    Si1639   Si       0.28377    0.73516    0.87316    1.000
    N1640    N        0.25097    0.86145    0.05436    1.000
    Si1641   Si       0.25405    0.79991    0.04161    1.000
    N1642    N        0.27015    0.81875    0.00633    1.000
    Si1643   Si       0.26283    0.76495    0.09805    1.000
    N1644    N        0.27825    0.80263    0.07666    1.000
    N1645    N        0.28246    0.85687    0.11590    1.000
    Si1646   Si       0.27949    0.85964    0.02024    1.000
    Si1647   Si       0.26632    0.88511    0.08729    1.000
    Si1648   Si       0.23775    0.92137    0.00410    1.000
    N1649    N        0.23797    0.90762    0.11141    1.000
    N1650    N        0.26889    0.95056    0.01839    1.000
    N1651    N        0.27093    0.96985    0.08532    1.000
    Si1652   Si       0.25244    0.94854    0.11718    1.000
    Si1653   Si       0.25345    0.82848    0.13455    1.000
    N1654    N        0.24757    0.84483    0.17266    1.000
    N1655    N        0.26670    0.78698    0.13773    1.000
    N1656    N        0.23410    0.78014    0.21584    1.000
    Si1657   Si       0.27835    0.76711    0.21871    1.000
    N1658    N        0.27672    0.85347    0.24154    1.000
    Si1659   Si       0.22939    0.76547    0.15671    1.000
    Si1660   Si       0.28274    0.84273    0.19979    1.000
    N1661    N        0.24174    0.97516    0.19489    1.000
    N1662    N        0.22898    0.91555    0.17929    1.000
    Si1663   Si       0.26724    0.93984    0.18581    1.000
    Si1664   Si       0.24255    0.98761    0.23620    1.000
    Si1665   Si       0.26115    0.81085    0.35525    1.000
    N1666    N        0.24301    0.84809    0.33856    1.000
    N1667    N        0.25080    0.78000    0.32683    1.000
    Si1668   Si       0.23968    0.78196    0.28409    1.000
    Si1669   Si       0.23477    0.85061    0.25544    1.000
    N1670    N        0.27620    0.78092    0.26320    1.000
    Si1671   Si       0.25942    0.88055    0.31091    1.000
    N1672    N        0.22922    0.88589    0.28137    1.000
    N1673    N        0.24773    0.99150    0.32778    1.000
    N1674    N        0.26602    0.91807    0.32896    1.000
    Si1675   Si       0.25978    0.95502    0.30502    1.000
    N1676    N        0.23290    0.96187    0.26935    1.000
    N1677    N        0.26477    0.80379    0.46200    1.000
    N1678    N        0.25877    0.78782    0.39350    1.000
    Si1679   Si       0.23624    0.79705    0.43040    1.000
    Si1680   Si       0.23184    0.86621    0.45287    1.000
    N1681    N        0.24180    0.85521    0.49345    1.000
    N1682    N        0.26108    0.88637    0.43041    1.000
    Si1683   Si       0.27748    0.97638    0.41976    1.000
    Si1684   Si       0.23952    0.92401    0.42014    1.000
    N1685    N        0.24596    0.96047    0.44678    1.000
    N1686    N        0.26834    0.94393    0.39075    1.000
    Si1687   Si       0.22540    0.98449    0.47410    1.000
    N1688    N        0.24331    0.86522    0.56027    1.000
    N1689    N        0.23853    0.80566    0.58976    1.000
    Si1690   Si       0.25341    0.81549    0.50336    1.000
    Si1691   Si       0.27753    0.87954    0.58147    1.000
    Si1692   Si       0.23068    0.76409    0.57984    1.000
    Si1693   Si       0.23409    0.88548    0.52402    1.000
    N1694    N        0.27476    0.97170    0.56889    1.000
    N1695    N        0.24974    0.99316    0.50987    1.000
    Si1696   Si       0.24071    0.99049    0.59177    1.000
    N1697    N        0.26728    0.91753    0.60164    1.000
    N1698    N        0.25744    0.92186    0.52015    1.000
    Si1699   Si       0.27417    0.96128    0.52536    1.000
    Si1700   Si       0.22781    0.91992    0.61969    1.000
    Si1701   Si       0.25375    0.82830    0.62376    1.000
    N1702    N        0.25994    0.80407    0.71506    1.000
    N1703    N        0.27332    0.79820    0.64930    1.000
    Si1704   Si       0.22966    0.77238    0.70773    1.000
    N1705    N        0.23048    0.86694    0.71359    1.000
    N1706    N        0.22358    0.98440    0.73409    1.000
    N1707    N        0.27224    0.98033    0.68451    1.000
    Si1708   Si       0.25393    0.89784    0.68834    1.000
    Si1709   Si       0.26254    0.96732    0.72605    1.000
    N1710    N        0.25699    0.92390    0.72331    1.000
    N1711    N        0.26570    0.86213    0.83334    1.000
    Si1712   Si       0.26028    0.82348    0.75263    1.000
    Si1713   Si       0.23104    0.86585    0.85968    1.000
    Si1714   Si       0.26341    0.76736    0.80846    1.000
    N1715    N        0.28007    0.85938    0.76402    1.000
    N1716    N        0.22453    0.77913    0.81771    1.000
    Si1717   Si       0.26556    0.88493    0.79727    1.000
    Si1718   Si       0.27458    0.95047    0.84139    1.000
    N1719    N        0.23212    0.95629    0.83279    1.000
    N1720    N        0.22745    0.89890    0.78455    1.000
    Si1721   Si       0.24653    0.78049    0.92853    1.000
    N1722    N        0.25531    0.82358    0.92555    1.000
    N1723    N        0.26729    0.76065    0.96260    1.000
    N1724    N        0.24824    0.88441    0.89461    1.000
    N1725    N        0.26634    0.88962    0.99225    1.000
    Si1726   Si       0.27424    0.96661    0.91999    1.000
    N1727    N        0.25081    0.00025    0.97386    1.000
    N1728    N        0.23182    0.97147    0.91762    1.000
    N1729    N        0.27951    0.94193    0.88478    1.000
    N1730    N        0.30784    0.08581    0.10431    1.000
    N1731    N        0.30876    0.03197    0.05671    1.000
    Si1732   Si       0.30945    0.07443    0.06215    1.000
    Si1733   Si       0.28628    0.12822    0.11162    1.000
    N1734    N        0.30507    0.01262    0.12379    1.000
    Si1735   Si       0.28488    0.01084    0.08585    1.000
    Si1736   Si       0.28385    0.20542    0.09900    1.000
    N1737    N        0.32940    0.14419    0.10559    1.000
    Si1738   Si       0.32996    0.16711    0.06814    1.000
    N1739    N        0.30863    0.14992    0.03694    1.000
    N1740    N        0.31993    0.20870    0.07363    1.000
    Si1741   Si       0.28894    0.16560    0.00242    1.000
    Si1742   Si       0.30481    0.05376    0.13773    1.000
    N1743    N        0.33541    0.04024    0.23544    1.000
    N1744    N        0.28280    0.12567    0.21323    1.000
    N1745    N        0.28748    0.13413    0.15390    1.000
    N1746    N        0.34050    0.05122    0.16327    1.000
    Si1747   Si       0.30286    0.22383    0.23845    1.000
    N1748    N        0.29783    0.20387    0.14026    1.000
    Si1749   Si       0.29832    0.15987    0.19089    1.000
    N1750    N        0.34410    0.16501    0.18680    1.000
    N1751    N        0.34161    0.20813    0.24637    1.000
    N1752    N        0.30671    0.03163    0.29836    1.000
    N1753    N        0.30250    0.12166    0.33012    1.000
    N1754    N        0.32346    0.09887    0.26639    1.000
    Si1755   Si       0.33613    0.09766    0.30698    1.000
    Si1756   Si       0.29799    0.03461    0.25583    1.000
    Si1757   Si       0.34095    0.02377    0.32656    1.000
    N1758    N        0.32561    0.01387    0.36651    1.000
    N1759    N        0.32651    0.18467    0.31328    1.000
    Si1760   Si       0.33535    0.15162    0.33728    1.000
    N1761    N        0.29528    0.23339    0.34515    1.000
    Si1762   Si       0.28768    0.20236    0.31239    1.000
    N1763    N        0.33869    0.10261    0.45282    1.000
    N1764    N        0.31943    0.06820    0.40199    1.000
    Si1765   Si       0.29242    0.03792    0.38460    1.000
    Si1766   Si       0.30339    0.09910    0.42654    1.000
    Si1767   Si       0.32402    0.16873    0.41480    1.000
    N1768    N        0.29066    0.13933    0.41580    1.000
    N1769    N        0.31394    0.21160    0.40671    1.000
    N1770    N        0.33544    0.23245    0.48422    1.000
    Si1771   Si       0.31899    0.04660    0.53748    1.000
    N1772    N        0.32531    0.03833    0.61218    1.000
    N1773    N        0.33941    0.07738    0.56138    1.000
    N1774    N        0.30935    0.06156    0.49868    1.000
    Si1775   Si       0.28483    0.04726    0.59842    1.000
    Si1776   Si       0.28370    0.13182    0.60477    1.000
    Si1777   Si       0.33533    0.18323    0.58051    1.000
    Si1778   Si       0.30689    0.14775    0.52938    1.000
    Si1779   Si       0.31626    0.21915    0.52056    1.000
    N1780    N        0.30349    0.15459    0.57182    1.000
    N1781    N        0.32420    0.22275    0.59306    1.000
    Si1782   Si       0.29267    0.24683    0.61282    1.000
    N1783    N        0.28941    0.18442    0.51172    1.000
    N1784    N        0.29421    0.25348    0.53290    1.000
    Si1785   Si       0.31109    0.05251    0.69048    1.000
    N1786    N        0.33630    0.01729    0.67760    1.000
    N1787    N        0.32777    0.09304    0.68907    1.000
    Si1788   Si       0.30078    0.12645    0.67915    1.000
    N1789    N        0.29705    0.03786    0.72953    1.000
    N1790    N        0.31156    0.13217    0.63800    1.000
    N1791    N        0.30528    0.24832    0.65434    1.000
    N1792    N        0.31222    0.16380    0.69895    1.000
    N1793    N        0.31345    0.05022    0.85000    1.000
    N1794    N        0.32179    0.12145    0.84740    1.000
    Si1795   Si       0.32777    0.11543    0.77005    1.000
    N1796    N        0.28789    0.09941    0.76113    1.000
    N1797    N        0.28801    0.03207    0.78978    1.000
    Si1798   Si       0.30392    0.08734    0.86972    1.000
    Si1799   Si       0.31191    0.00899    0.75758    1.000
    Si1800   Si       0.28606    0.02371    0.83094    1.000
    Si1801   Si       0.30107    0.15243    0.82701    1.000
    Si1802   Si       0.32679    0.22136    0.84123    1.000
    N1803    N        0.32166    0.15498    0.78765    1.000
    N1804    N        0.30393    0.18630    0.85401    1.000
    Si1805   Si       0.33137    0.19337    0.76865    1.000
    N1806    N        0.29852    0.21329    0.74857    1.000
    N1807    N        0.34299    0.21764    0.80129    1.000
    N1808    N        0.30211    0.25414    0.85594    1.000
    N1809    N        0.31688    0.07994    0.91034    1.000
    Si1810   Si       0.33137    0.07469    0.94970    1.000
    N1811    N        0.29443    0.06506    0.97109    1.000
    Si1812   Si       0.30649    0.18381    0.89729    1.000
    N1813    N        0.31706    0.18067    0.97405    1.000
    Si1814   Si       0.32471    0.15029    0.94212    1.000
    N1815    N        0.30107    0.22025    0.91873    1.000
    N1816    N        0.30311    0.24730    0.98823    1.000
    Si1817   Si       0.32215    0.22124    0.95857    1.000
    N1818    N        0.28884    0.15128    0.91977    1.000
    Si1819   Si       0.30689    0.27839    0.01855    1.000
    Si1820   Si       0.32419    0.29473    0.09459    1.000
    N1821    N        0.33336    0.27423    0.05562    1.000
    N1822    N        0.33671    0.33747    0.09842    1.000
    Si1823   Si       0.32143    0.37817    0.09680    1.000
    N1824    N        0.30451    0.31925    0.00231    1.000
    N1825    N        0.30760    0.44671    0.00998    1.000
    Si1826   Si       0.30712    0.44483    0.05391    1.000
    N1827    N        0.31201    0.40179    0.06166    1.000
    Si1828   Si       0.33349    0.50397    0.09048    1.000
    N1829    N        0.33817    0.46437    0.07330    1.000
    N1830    N        0.33443    0.50992    0.00579    1.000
    N1831    N        0.29258    0.36971    0.17160    1.000
    Si1832   Si       0.29725    0.33536    0.19458    1.000
    N1833    N        0.30365    0.30127    0.16826    1.000
    N1834    N        0.33135    0.33232    0.21946    1.000
    N1835    N        0.30558    0.26817    0.22979    1.000
    Si1836   Si       0.34222    0.29116    0.23473    1.000
    Si1837   Si       0.32121    0.40163    0.16556    1.000
    N1838    N        0.30426    0.49483    0.12315    1.000
    N1839    N        0.28385    0.49726    0.18854    1.000
    N1840    N        0.29608    0.43820    0.16080    1.000
    Si1841   Si       0.31370    0.47743    0.16338    1.000
    Si1842   Si       0.33801    0.40415    0.24439    1.000
    Si1843   Si       0.30290    0.33569    0.32675    1.000
    N1844    N        0.30447    0.29503    0.33727    1.000
    N1845    N        0.29759    0.36425    0.35929    1.000
    Si1846   Si       0.33563    0.38301    0.35042    1.000
    N1847    N        0.34362    0.35104    0.32065    1.000
    Si1848   Si       0.33162    0.26285    0.33864    1.000
    N1849    N        0.30349    0.39982    0.27047    1.000
    Si1850   Si       0.32062    0.43254    0.29415    1.000
    N1851    N        0.29171    0.45867    0.31124    1.000
    Si1852   Si       0.29260    0.50058    0.32074    1.000
    Si1853   Si       0.34026    0.36986    0.42356    1.000
    N1854    N        0.32685    0.27614    0.43146    1.000
    N1855    N        0.30464    0.34246    0.42326    1.000
    N1856    N        0.32578    0.30499    0.48702    1.000
    Si1857   Si       0.30051    0.30556    0.44796    1.000
    N1858    N        0.31833    0.37464    0.49867    1.000
    Si1859   Si       0.31765    0.49759    0.44083    1.000
    N1860    N        0.31974    0.40728    0.43743    1.000
    N1861    N        0.29312    0.50207    0.48164    1.000
    Si1862   Si       0.33071    0.41134    0.47802    1.000
    N1863    N        0.29345    0.47042    0.41927    1.000
    N1864    N        0.30838    0.28579    0.59596    1.000
    Si1865   Si       0.31610    0.28928    0.52849    1.000
    N1866    N        0.29916    0.32462    0.54530    1.000
    Si1867   Si       0.29263    0.32603    0.58812    1.000
    N1868    N        0.31588    0.35431    0.60862    1.000
    Si1869   Si       0.28649    0.35419    0.51704    1.000
    N1870    N        0.31485    0.49413    0.55030    1.000
    N1871    N        0.31305    0.42011    0.56598    1.000
    Si1872   Si       0.31964    0.46274    0.58053    1.000
    Si1873   Si       0.32760    0.49147    0.50850    1.000
    Si1874   Si       0.33433    0.39208    0.59185    1.000
    N1875    N        0.28976    0.46690    0.61479    1.000
    N1876    N        0.31038    0.44297    0.49973    1.000
    Si1877   Si       0.28543    0.42405    0.53426    1.000
    N1878    N        0.30350    0.36829    0.68553    1.000
    Si1879   Si       0.30063    0.35744    0.72923    1.000
    Si1880   Si       0.33011    0.28506    0.72050    1.000
    Si1881   Si       0.32784    0.36771    0.65014    1.000
    N1882    N        0.33271    0.32826    0.73642    1.000
    N1883    N        0.28743    0.27103    0.71717    1.000
    N1884    N        0.31322    0.50720    0.71202    1.000
    N1885    N        0.28441    0.44158    0.68038    1.000
    Si1886   Si       0.31027    0.44522    0.64693    1.000
    N1887    N        0.33073    0.40958    0.63536    1.000
    Si1888   Si       0.28419    0.47588    0.71073    1.000
    Si1889   Si       0.32982    0.31345    0.77906    1.000
    N1890    N        0.29482    0.31401    0.80443    1.000
    N1891    N        0.33762    0.27438    0.76286    1.000
    Si1892   Si       0.28481    0.35779    0.85114    1.000
    N1893    N        0.31618    0.38200    0.83498    1.000
    N1894    N        0.30431    0.39120    0.75939    1.000
    N1895    N        0.28968    0.48938    0.83598    1.000
    Si1896   Si       0.29845    0.40607    0.80165    1.000
    Si1897   Si       0.33075    0.48839    0.84779    1.000
    N1898    N        0.33283    0.43274    0.79308    1.000
    Si1899   Si       0.32336    0.42958    0.74989    1.000
    N1900    N        0.28793    0.45396    0.74785    1.000
    Si1901   Si       0.33141    0.33979    0.97555    1.000
    Si1902   Si       0.31425    0.32531    0.90483    1.000
    N1903    N        0.31138    0.35032    0.93985    1.000
    N1904    N        0.31929    0.28563    0.91999    1.000
    Si1905   Si       0.29239    0.25863    0.89963    1.000
    Si1906   Si       0.30991    0.39123    0.92298    1.000
    N1907    N        0.34426    0.40994    0.90248    1.000
    N1908    N        0.29388    0.41660    0.95266    1.000
    N1909    N        0.32979    0.47687    0.89059    1.000
    Si1910   Si       0.32581    0.47394    0.98209    1.000
    N1911    N        0.29877    0.49275    0.95372    1.000
    Si1912   Si       0.29386    0.49071    0.91049    1.000
    Si1913   Si       0.30699    0.40515    0.99207    1.000
    N1914    N        0.30803    0.53018    0.06726    1.000
    N1915    N        0.30775    0.57590    0.01228    1.000
    Si1916   Si       0.30345    0.53419    0.02466    1.000
    Si1917   Si       0.32562    0.70856    0.10034    1.000
    N1918    N        0.32121    0.68215    0.06462    1.000
    Si1919   Si       0.29225    0.74246    0.04300    1.000
    N1920    N        0.29910    0.74187    0.08788    1.000
    Si1921   Si       0.30157    0.67367    0.99495    1.000
    N1922    N        0.28448    0.70864    0.01724    1.000
    N1923    N        0.34417    0.67825    0.99688    1.000
    N1924    N        0.28531    0.64130    0.02095    1.000
    N1925    N        0.33740    0.53133    0.17689    1.000
    N1926    N        0.30800    0.56883    0.12684    1.000
    Si1927   Si       0.30050    0.53584    0.19583    1.000
    N1928    N        0.30895    0.54519    0.23751    1.000
    N1929    N        0.32484    0.62856    0.23333    1.000
    N1930    N        0.29672    0.63125    0.16386    1.000
    Si1931   Si       0.28090    0.59231    0.15057    1.000
    N1932    N        0.33659    0.74821    0.16238    1.000
    Si1933   Si       0.32309    0.64437    0.19281    1.000
    N1934    N        0.31622    0.68708    0.20013    1.000
    Si1935   Si       0.30959    0.71737    0.17053    1.000
    N1936    N        0.30747    0.69329    0.13591    1.000
    Si1937   Si       0.33105    0.70495    0.23820    1.000
    N1938    N        0.31439    0.74404    0.23584    1.000
    Si1939   Si       0.32766    0.55096    0.31407    1.000
    N1940    N        0.32825    0.57254    0.35116    1.000
    N1941    N        0.31051    0.62240    0.30854    1.000
    N1942    N        0.28985    0.53843    0.30097    1.000
    N1943    N        0.33961    0.51075    0.32222    1.000
    N1944    N        0.28891    0.51130    0.36291    1.000
    N1945    N        0.33680    0.74352    0.29985    1.000
    Si1946   Si       0.30653    0.64467    0.26882    1.000
    N1947    N        0.31186    0.69647    0.34564    1.000
    N1948    N        0.31725    0.68523    0.27203    1.000
    Si1949   Si       0.30584    0.71220    0.30571    1.000
    N1950    N        0.31357    0.53609    0.42155    1.000
    Si1951   Si       0.32130    0.53714    0.37810    1.000
    Si1952   Si       0.29093    0.57136    0.43691    1.000
    N1953    N        0.30140    0.57180    0.48230    1.000
    N1954    N        0.29785    0.60746    0.41379    1.000
    Si1955   Si       0.30021    0.69582    0.44995    1.000
    Si1956   Si       0.32459    0.64073    0.41153    1.000
    N1957    N        0.29929    0.67486    0.41066    1.000
    N1958    N        0.34264    0.64136    0.37299    1.000
    N1959    N        0.33942    0.71116    0.45512    1.000
    Si1960   Si       0.30425    0.59630    0.52243    1.000
    Si1961   Si       0.32597    0.53436    0.56397    1.000
    N1962    N        0.31823    0.53055    0.60731    1.000
    N1963    N        0.29751    0.56423    0.55143    1.000
    N1964    N        0.33591    0.63847    0.56570    1.000
    Si1965   Si       0.29799    0.73134    0.56440    1.000
    N1966    N        0.32591    0.74166    0.53261    1.000
    N1967    N        0.30334    0.69064    0.57853    1.000
    Si1968   Si       0.29376    0.64833    0.57114    1.000
    N1969    N        0.30468    0.75407    0.60204    1.000
    N1970    N        0.29904    0.58847    0.64158    1.000
    Si1971   Si       0.30543    0.54616    0.73194    1.000
    Si1972   Si       0.33328    0.56324    0.63163    1.000
    Si1973   Si       0.29394    0.63109    0.64037    1.000
    N1974    N        0.30019    0.63156    0.73535    1.000
    Si1975   Si       0.31812    0.72250    0.70059    1.000
    N1976    N        0.30015    0.73991    0.73524    1.000
    N1977    N        0.33046    0.65289    0.62961    1.000
    N1978    N        0.32296    0.68020    0.69720    1.000
    Si1979   Si       0.28533    0.66408    0.70748    1.000
    N1980    N        0.29349    0.73750    0.66924    1.000
    N1981    N        0.30609    0.61567    0.84675    1.000
    Si1982   Si       0.29068    0.52972    0.85035    1.000
    N1983    N        0.33448    0.53379    0.84211    1.000
    Si1984   Si       0.32934    0.64395    0.76559    1.000
    N1985    N        0.29946    0.66142    0.79494    1.000
    Si1986   Si       0.29700    0.70135    0.81388    1.000
    N1987    N        0.33834    0.71369    0.82198    1.000
    Si1988   Si       0.33523    0.75827    0.82113    1.000
    N1989    N        0.30829    0.58953    0.91799    1.000
    N1990    N        0.28328    0.52832    0.89344    1.000
    Si1991   Si       0.28591    0.61592    0.88639    1.000
    Si1992   Si       0.34015    0.61309    0.93223    1.000
    N1993    N        0.33280    0.65595    0.93329    1.000
    N1994    N        0.31190    0.71826    0.89973    1.000
    Si1995   Si       0.29901    0.68214    0.92090    1.000
    Si1996   Si       0.30814    0.82511    0.09779    1.000
    N1997    N        0.32227    0.87047    0.01695    1.000
    N1998    N        0.31446    0.76928    0.01550    1.000
    Si1999   Si       0.33288    0.88429    0.05819    1.000
    N2000    N        0.33852    0.84465    0.07400    1.000
    N2001    N        0.32913    0.96978    0.05507    1.000
    N2002    N        0.29746    0.90654    0.06850    1.000
    Si2003   Si       0.29216    0.94701    0.05608    1.000
    Si2004   Si       0.33598    0.00791    0.03112    1.000
    N2005    N        0.32680    0.81197    0.13322    1.000
    N2006    N        0.31160    0.86701    0.18245    1.000
    N2007    N        0.29764    0.80127    0.19654    1.000
    Si2008   Si       0.30797    0.78240    0.15852    1.000
    Si2009   Si       0.34142    0.84592    0.15644    1.000
    N2010    N        0.28483    0.94717    0.14830    1.000
    Si2011   Si       0.30813    0.96122    0.24801    1.000
    N2012    N        0.33668    0.98478    0.18430    1.000
    Si2013   Si       0.32389    0.90060    0.20602    1.000
    N2014    N        0.29244    0.92864    0.21844    1.000
    Si2015   Si       0.31970    0.97504    0.14449    1.000
    N2016    N        0.28467    0.99701    0.24115    1.000
    N2017    N        0.30254    0.82117    0.35327    1.000
    N2018    N        0.30139    0.86846    0.30349    1.000
    Si2019   Si       0.31363    0.85373    0.26445    1.000
    Si2020   Si       0.31777    0.86071    0.34212    1.000
    Si2021   Si       0.31879    0.77296    0.27058    1.000
    N2022    N        0.33311    0.81354    0.27081    1.000
    N2023    N        0.30145    0.95896    0.29080    1.000
    N2024    N        0.33073    0.94778    0.35507    1.000
    Si2025   Si       0.29264    0.92603    0.36180    1.000
    N2026    N        0.34118    0.88304    0.24422    1.000
    Si2027   Si       0.33997    0.95428    0.31293    1.000
    Si2028   Si       0.30714    0.81666    0.45808    1.000
    Si2029   Si       0.30287    0.87785    0.41773    1.000
    N2030    N        0.33178    0.78304    0.47096    1.000
    N2031    N        0.32016    0.84797    0.48663    1.000
    Si2032   Si       0.32171    0.80483    0.38893    1.000
    N2033    N        0.31308    0.83507    0.42015    1.000
    N2034    N        0.32037    0.76345    0.40450    1.000
    N2035    N        0.32978    0.90051    0.44482    1.000
    N2036    N        0.30589    0.88682    0.37533    1.000
    N2037    N        0.32072    0.97339    0.41872    1.000
    Si2038   Si       0.34410    0.94131    0.44120    1.000
    Si2039   Si       0.32624    0.78033    0.51462    1.000
    Si2040   Si       0.31965    0.83992    0.52893    1.000
    N2041    N        0.31172    0.87520    0.55381    1.000
    N2042    N        0.29065    0.80547    0.52603    1.000
    N2043    N        0.28430    0.85852    0.61731    1.000
    N2044    N        0.31594    0.95278    0.51689    1.000
    Si2045   Si       0.29742    0.94830    0.59689    1.000
    Si2046   Si       0.32674    0.91319    0.53820    1.000
    N2047    N        0.33342    0.93290    0.57797    1.000
    N2048    N        0.32765    0.79598    0.71102    1.000
    Si2049   Si       0.30942    0.87720    0.64736    1.000
    N2050    N        0.31126    0.84703    0.68022    1.000
    Si2051   Si       0.29290    0.80939    0.68648    1.000
    N2052    N        0.31351    0.96773    0.63160    1.000
    N2053    N        0.33407    0.95147    0.70045    1.000
    Si2054   Si       0.33776    0.00578    0.63590    1.000
    N2055    N        0.28973    0.91054    0.66699    1.000
    Si2056   Si       0.30220    0.95238    0.67073    1.000
    Si2057   Si       0.32333    0.86491    0.77061    1.000
    Si2058   Si       0.30772    0.85783    0.84885    1.000
    N2059    N        0.33050    0.85251    0.81319    1.000
    N2060    N        0.29406    0.75852    0.83835    1.000
    Si2061   Si       0.31417    0.77915    0.74968    1.000
    N2062    N        0.28424    0.79378    0.77796    1.000
    Si2063   Si       0.31256    0.94143    0.77960    1.000
    N2064    N        0.30309    0.98487    0.83549    1.000
    N2065    N        0.32745    0.90653    0.75803    1.000
    N2066    N        0.29364    0.97013    0.75632    1.000
    N2067    N        0.32412    0.89263    0.87024    1.000
    N2068    N        0.28646    0.92196    0.80917    1.000
    Si2069   Si       0.29674    0.83611    0.92226    1.000
    N2070    N        0.31541    0.81081    0.95480    1.000
    N2071    N        0.31258    0.82803    0.88056    1.000
    Si2072   Si       0.29216    0.78987    0.98434    1.000
    N2073    N        0.30356    0.87833    0.93246    1.000
    N2074    N        0.32393    0.99590    0.99097    1.000
    N2075    N        0.29787    0.00222    0.93006    1.000
    Si2076   Si       0.30116    0.90521    0.96787    1.000
    Si2077   Si       0.33767    0.00420    0.94863    1.000
    N2078    N        0.28482    0.94346    0.95546    1.000
    Si2079   Si       0.28871    0.90129    0.89750    1.000
    Si2080   Si       0.28535    0.97507    0.98610    1.000
    N2081    N        0.38127    0.07185    0.11067    1.000
    N2082    N        0.37567    0.02748    0.03813    1.000
    Si2083   Si       0.38634    0.06223    0.06472    1.000
    Si2084   Si       0.34953    0.10252    0.10621    1.000
    Si2085   Si       0.37984    0.12420    0.04279    1.000
    N2086    N        0.35098    0.09483    0.06013    1.000
    N2087    N        0.38323    0.13940    0.00314    1.000
    N2088    N        0.37444    0.16574    0.05869    1.000
    N2089    N        0.36852    0.21842    0.01849    1.000
    N2090    N        0.38654    0.23275    0.08223    1.000
    Si2091   Si       0.39040    0.18086    0.01505    1.000
    Si2092   Si       0.35082    0.23398    0.05573    1.000
    Si2093   Si       0.39582    0.19039    0.08977    1.000
    Si2094   Si       0.37355    0.07768    0.16151    1.000
    N2095    N        0.36651    0.09202    0.20491    1.000
    N2096    N        0.36252    0.11886    0.14908    1.000
    N2097    N        0.38946    0.01617    0.20845    1.000
    Si2098   Si       0.35500    0.08037    0.24471    1.000
    Si2099   Si       0.34957    0.02426    0.19679    1.000
    Si2100   Si       0.40382    0.04004    0.24221    1.000
    N2101    N        0.38201    0.15322    0.23590    1.000
    Si2102   Si       0.37542    0.13255    0.19343    1.000
    Si2103   Si       0.34725    0.16017    0.14271    1.000
    N2104    N        0.39430    0.21551    0.19878    1.000
    Si2105   Si       0.36615    0.18828    0.21727    1.000
    N2106    N        0.38054    0.18737    0.13062    1.000
    N2107    N        0.35471    0.06573    0.33060    1.000
    N2108    N        0.38991    0.07207    0.26844    1.000
    Si2109   Si       0.39377    0.06970    0.34788    1.000
    N2110    N        0.36301    0.13140    0.30792    1.000
    Si2111   Si       0.35412    0.20797    0.28719    1.000
    Si2112   Si       0.38918    0.14965    0.27882    1.000
    N2113    N        0.39205    0.19054    0.29338    1.000
    N2114    N        0.35176    0.24654    0.30361    1.000
    N2115    N        0.36275    0.03458    0.45012    1.000
    Si2116   Si       0.35854    0.04728    0.40799    1.000
    N2117    N        0.39442    0.06834    0.39075    1.000
    Si2118   Si       0.34698    0.06636    0.47753    1.000
    N2119    N        0.34715    0.15840    0.37894    1.000
    Si2120   Si       0.34331    0.24514    0.40592    1.000
    Si2121   Si       0.35973    0.13373    0.47570    1.000
    Si2122   Si       0.36289    0.20534    0.46332    1.000
    N2123    N        0.37587    0.22767    0.43010    1.000
    N2124    N        0.39509    0.19695    0.48983    1.000
    N2125    N        0.34667    0.16762    0.45118    1.000
    Si2126   Si       0.36853    0.10530    0.54182    1.000
    Si2127   Si       0.36144    0.06551    0.59660    1.000
    N2128    N        0.38054    0.07452    0.50743    1.000
    Si2129   Si       0.38330    0.03836    0.53285    1.000
    N2130    N        0.39094    0.04102    0.57552    1.000
    N2131    N        0.34708    0.01454    0.52569    1.000
    N2132    N        0.34708    0.13334    0.51690    1.000
    N2133    N        0.36518    0.15761    0.59844    1.000
    Si2134   Si       0.39219    0.20284    0.53083    1.000
    N2135    N        0.34851    0.19970    0.54130    1.000
    N2136    N        0.37291    0.09280    0.62772    1.000
    Si2137   Si       0.36693    0.10901    0.69986    1.000
    N2138    N        0.36303    0.11694    0.74229    1.000
    Si2139   Si       0.35467    0.13189    0.63238    1.000
    N2140    N        0.39907    0.08207    0.69244    1.000
    Si2141   Si       0.35082    0.17970    0.69762    1.000
    N2142    N        0.36279    0.21044    0.66616    1.000
    N2143    N        0.35938    0.19210    0.73733    1.000
    Si2144   Si       0.39567    0.18206    0.65876    1.000
    N2145    N        0.37049    0.14696    0.67252    1.000
    Si2146   Si       0.34916    0.24949    0.65501    1.000
    Si2147   Si       0.40184    0.20391    0.73999    1.000
    N2148    N        0.37718    0.07566    0.85100    1.000
    Si2149   Si       0.36553    0.11666    0.83395    1.000
    Si2150   Si       0.38572    0.09491    0.77322    1.000
    N2151    N        0.36600    0.01824    0.81115    1.000
    Si2152   Si       0.38459    0.01884    0.77312    1.000
    Si2153   Si       0.34862    0.05476    0.82716    1.000
    N2154    N        0.34665    0.08893    0.79756    1.000
    N2155    N        0.39815    0.05586    0.75807    1.000
    N2156    N        0.38202    0.15086    0.85405    1.000
    Si2157   Si       0.36611    0.25412    0.78730    1.000
    N2158    N        0.39880    0.24206    0.76214    1.000
    N2159    N        0.36346    0.22025    0.86500    1.000
    Si2160   Si       0.38821    0.11784    0.96637    1.000
    N2161    N        0.36023    0.04399    0.94909    1.000
    N2162    N        0.39918    0.01472    0.88404    1.000
    N2163    N        0.34706    0.11468    0.95625    1.000
    N2164    N        0.34622    0.17247    0.91082    1.000
    N2165    N        0.39669    0.19147    0.96980    1.000
    N2166    N        0.35974    0.24486    0.95392    1.000
    Si2167   Si       0.37719    0.18212    0.88249    1.000
    Si2168   Si       0.38765    0.23158    0.98337    1.000
    N2169    N        0.38801    0.36456    0.04406    1.000
    Si2170   Si       0.38814    0.26842    0.10934    1.000
    N2171    N        0.39718    0.30959    0.09631    1.000
    Si2172   Si       0.38432    0.39082    0.01184    1.000
    N2173    N        0.38663    0.49776    0.05901    1.000
    Si2174   Si       0.37824    0.45463    0.05864    1.000
    N2175    N        0.38905    0.43330    0.01930    1.000
    N2176    N        0.40194    0.43831    0.09240    1.000
    Si2177   Si       0.37271    0.33765    0.12286    1.000
    N2178    N        0.34872    0.27781    0.12713    1.000
    N2179    N        0.36944    0.27865    0.20446    1.000
    N2180    N        0.36164    0.33624    0.16400    1.000
    Si2181   Si       0.36726    0.35476    0.20941    1.000
    Si2182   Si       0.34715    0.29442    0.16854    1.000
    N2183    N        0.34528    0.40047    0.12727    1.000
    N2184    N        0.36755    0.50708    0.23880    1.000
    N2185    N        0.34880    0.40292    0.20121    1.000
    Si2186   Si       0.38669    0.40929    0.12405    1.000
    Si2187   Si       0.37873    0.43547    0.19233    1.000
    N2188    N        0.35379    0.46797    0.17858    1.000
    Si2189   Si       0.36986    0.50614    0.19526    1.000
    Si2190   Si       0.36658    0.34355    0.28607    1.000
    N2191    N        0.36003    0.30369    0.27176    1.000
    Si2192   Si       0.38458    0.27119    0.28954    1.000
    N2193    N        0.36823    0.37430    0.25480    1.000
    N2194    N        0.36102    0.26072    0.36974    1.000
    N2195    N        0.34462    0.44494    0.26056    1.000
    Si2196   Si       0.38398    0.43545    0.33624    1.000
    Si2197   Si       0.38371    0.47152    0.26036    1.000
    N2198    N        0.39652    0.45842    0.29999    1.000
    Si2199   Si       0.37492    0.50510    0.34529    1.000
    N2200    N        0.34513    0.41778    0.32727    1.000
    N2201    N        0.38305    0.46860    0.36550    1.000
    N2202    N        0.38974    0.27768    0.48086    1.000
    N2203    N        0.36825    0.35377    0.45245    1.000
    Si2204   Si       0.34841    0.27128    0.46919    1.000
    N2205    N        0.36054    0.37877    0.38656    1.000
    Si2206   Si       0.34988    0.34239    0.49083    1.000
    N2207    N        0.35927    0.48066    0.44223    1.000
    N2208    N        0.37287    0.42060    0.47871    1.000
    Si2209   Si       0.38453    0.46277    0.47537    1.000
    Si2210   Si       0.38811    0.48533    0.40682    1.000
    N2211    N        0.37748    0.35552    0.52139    1.000
    N2212    N        0.35456    0.27787    0.54648    1.000
    Si2213   Si       0.39449    0.27662    0.52540    1.000
    N2214    N        0.37262    0.26269    0.61972    1.000
    Si2215   Si       0.34537    0.26297    0.58584    1.000
    N2216    N        0.37686    0.38162    0.58821    1.000
    Si2217   Si       0.38662    0.46059    0.55181    1.000
    N2218    N        0.36362    0.46192    0.58903    1.000
    N2219    N        0.36858    0.47654    0.51637    1.000
    Si2220   Si       0.39418    0.39440    0.50663    1.000
    Si2221   Si       0.38743    0.35616    0.62234    1.000
    N2222    N        0.35652    0.27553    0.68891    1.000
    N2223    N        0.36538    0.34399    0.65769    1.000
    Si2224   Si       0.38538    0.31176    0.68109    1.000
    Si2225   Si       0.37553    0.34177    0.74505    1.000
    Si2226   Si       0.38488    0.45484    0.69519    1.000
    Si2227   Si       0.34410    0.50765    0.68344    1.000
    N2228    N        0.33885    0.47577    0.65534    1.000
    N2229    N        0.39811    0.50634    0.63132    1.000
    N2230    N        0.38400    0.49771    0.69764    1.000
    N2231    N        0.35808    0.43842    0.72583    1.000
    Si2232   Si       0.37428    0.46941    0.63038    1.000
    N2233    N        0.39466    0.44099    0.65569    1.000
    N2234    N        0.37287    0.27762    0.82555    1.000
    N2235    N        0.36933    0.32924    0.78617    1.000
    Si2236   Si       0.39531    0.31495    0.81741    1.000
    Si2237   Si       0.38549    0.25732    0.86425    1.000
    N2238    N        0.38935    0.38024    0.74440    1.000
    Si2239   Si       0.34622    0.38461    0.86580    1.000
    N2240    N        0.38008    0.40204    0.84007    1.000
    N2241    N        0.36906    0.47026    0.83635    1.000
    Si2242   Si       0.36887    0.43442    0.81418    1.000
    Si2243   Si       0.39380    0.42128    0.74659    1.000
    N2244    N        0.34601    0.34536    0.88574    1.000
    N2245    N        0.36670    0.31702    0.96265    1.000
    N2246    N        0.38561    0.28718    0.89705    1.000
    Si2247   Si       0.35978    0.28323    0.93308    1.000
    Si2248   Si       0.38826    0.32898    0.88855    1.000
    N2249    N        0.34251    0.38091    0.99120    1.000
    N2250    N        0.35783    0.45563    0.95745    1.000
    Si2251   Si       0.39432    0.45486    0.98193    1.000
    Si2252   Si       0.35991    0.45116    0.91305    1.000
    N2253    N        0.39949    0.46377    0.89872    1.000
    N2254    N        0.37617    0.55840    0.02388    1.000
    N2255    N        0.36530    0.52822    0.11200    1.000
    N2256    N        0.35534    0.62033    0.04276    1.000
    Si2257   Si       0.34911    0.59099    0.01033    1.000
    Si2258   Si       0.37497    0.51595    0.01898    1.000
    Si2259   Si       0.38728    0.63446    0.06955    1.000
    N2260    N        0.38057    0.64236    0.11329    1.000
    N2261    N        0.36728    0.72017    0.10786    1.000
    Si2262   Si       0.38588    0.74511    0.07756    1.000
    N2263    N        0.36390    0.73318    0.04052    1.000
    Si2264   Si       0.35532    0.68849    0.03843    1.000
    N2265    N        0.39266    0.67437    0.05878    1.000
    Si2266   Si       0.39437    0.68362    0.11569    1.000
    Si2267   Si       0.34700    0.55450    0.14184    1.000
    N2268    N        0.37981    0.58146    0.15275    1.000
    N2269    N        0.37490    0.57591    0.22363    1.000
    Si2270   Si       0.36755    0.61783    0.22643    1.000
    Si2271   Si       0.39038    0.62411    0.15126    1.000
    Si2272   Si       0.39898    0.56623    0.18786    1.000
    N2273    N        0.36859    0.64067    0.18888    1.000
    N2274    N        0.37221    0.70572    0.22881    1.000
    N2275    N        0.39296    0.69674    0.15952    1.000
    Si2276   Si       0.37629    0.73611    0.14879    1.000
    Si2277   Si       0.38970    0.67873    0.19816    1.000
    N2278    N        0.38492    0.61410    0.32882    1.000
    Si2279   Si       0.39087    0.59509    0.28954    1.000
    N2280    N        0.35619    0.56794    0.28625    1.000
    Si2281   Si       0.35188    0.54849    0.24821    1.000
    N2282    N        0.39602    0.62648    0.25929    1.000
    Si2283   Si       0.34132    0.61354    0.33961    1.000
    N2284    N        0.38151    0.74860    0.35456    1.000
    N2285    N        0.37499    0.68806    0.32786    1.000
    Si2286   Si       0.37595    0.72985    0.31509    1.000
    Si2287   Si       0.34804    0.68228    0.36194    1.000
    Si2288   Si       0.40371    0.65643    0.32357    1.000
    Si2289   Si       0.38866    0.61023    0.43762    1.000
    Si2290   Si       0.38356    0.55268    0.41243    1.000
    N2291    N        0.36467    0.52556    0.38295    1.000
    N2292    N        0.36805    0.57175    0.44877    1.000
    N2293    N        0.39787    0.59323    0.39904    1.000
    Si2294   Si       0.34344    0.56985    0.48465    1.000
    Si2295   Si       0.34474    0.75308    0.44048    1.000
    Si2296   Si       0.39769    0.73109    0.39205    1.000
    N2297    N        0.37116    0.69629    0.39630    1.000
    N2298    N        0.36008    0.64273    0.44077    1.000
    Si2299   Si       0.37165    0.68571    0.43918    1.000
    N2300    N        0.38758    0.75447    0.42906    1.000
    N2301    N        0.36693    0.54463    0.56140    1.000
    Si2302   Si       0.38877    0.57689    0.58073    1.000
    Si2303   Si       0.38423    0.52212    0.52810    1.000
    N2304    N        0.34806    0.53170    0.50305    1.000
    N2305    N        0.34680    0.60268    0.51358    1.000
    N2306    N        0.40036    0.61373    0.56412    1.000
    Si2307   Si       0.36838    0.62969    0.53742    1.000
    Si2308   Si       0.36483    0.73052    0.54615    1.000
    N2309    N        0.37128    0.69044    0.56295    1.000
    Si2310   Si       0.34467    0.75337    0.61460    1.000
    Si2311   Si       0.34390    0.68026    0.59687    1.000
    N2312    N        0.39870    0.65495    0.51345    1.000
    N2313    N        0.36461    0.58826    0.61514    1.000
    N2314    N        0.36219    0.62066    0.68142    1.000
    Si2315   Si       0.36436    0.57724    0.69543    1.000
    Si2316   Si       0.36541    0.62733    0.63794    1.000
    N2317    N        0.34480    0.56596    0.73310    1.000
    N2318    N        0.34989    0.54751    0.66752    1.000
    N2319    N        0.39454    0.65502    0.62052    1.000
    N2320    N        0.35907    0.71288    0.62321    1.000
    Si2321   Si       0.36119    0.66035    0.70323    1.000
    N2322    N        0.39141    0.68659    0.68620    1.000
    Si2323   Si       0.39365    0.69235    0.64224    1.000
    N2324    N        0.35647    0.73897    0.70122    1.000
    Si2325   Si       0.37549    0.54756    0.83554    1.000
    N2326    N        0.37568    0.58783    0.84694    1.000
    Si2327   Si       0.37043    0.57738    0.76636    1.000
    N2328    N        0.38732    0.54563    0.79183    1.000
    N2329    N        0.34638    0.60798    0.78731    1.000
    Si2330   Si       0.34587    0.61548    0.82883    1.000
    Si2331   Si       0.37625    0.69356    0.83748    1.000
    N2332    N        0.36983    0.65222    0.84548    1.000
    N2333    N        0.36454    0.66401    0.74884    1.000
    Si2334   Si       0.39878    0.68491    0.76684    1.000
    N2335    N        0.39658    0.72571    0.74876    1.000
    Si2336   Si       0.39188    0.62169    0.86893    1.000
    N2337    N        0.37835    0.61312    0.90930    1.000
    N2338    N        0.36146    0.60436    0.96985    1.000
    Si2339   Si       0.40007    0.61772    0.94700    1.000
    Si2340   Si       0.35362    0.73495    0.90115    1.000
    N2341    N        0.36923    0.71699    0.94071    1.000
    Si2342   Si       0.36328    0.67737    0.95689    1.000
    N2343    N        0.38295    0.71858    0.87252    1.000
    N2344    N        0.40269    0.66012    0.95656    1.000
    N2345    N        0.37851    0.80237    0.03046    1.000
    Si2346   Si       0.37675    0.82311    0.06855    1.000
    N2347    N        0.38394    0.78639    0.09307    1.000
    Si2348   Si       0.35805    0.76663    0.01376    1.000
    Si2349   Si       0.35982    0.95176    0.07877    1.000
    N2350    N        0.36689    0.91060    0.06511    1.000
    N2351    N        0.39792    0.88749    0.00939    1.000
    N2352    N        0.34630    0.94960    0.12012    1.000
    N2353    N        0.37419    0.83268    0.18530    1.000
    N2354    N        0.36799    0.87410    0.13774    1.000
    N2355    N        0.38268    0.77653    0.23897    1.000
    Si2356   Si       0.39533    0.81033    0.21601    1.000
    N2357    N        0.35288    0.92103    0.18107    1.000
    Si2358   Si       0.36355    0.95712    0.20153    1.000
    Si2359   Si       0.36896    0.91758    0.14065    1.000
    N2360    N        0.35099    0.95189    0.24325    1.000
    Si2361   Si       0.37674    0.80713    0.27179    1.000
    N2362    N        0.36119    0.86958    0.34247    1.000
    Si2363   Si       0.39383    0.78981    0.34957    1.000
    N2364    N        0.39563    0.79021    0.30550    1.000
    N2365    N        0.39727    0.83781    0.25061    1.000
    Si2366   Si       0.39253    0.89786    0.32589    1.000
    Si2367   Si       0.36524    0.91435    0.26045    1.000
    N2368    N        0.36493    0.99018    0.31444    1.000
    N2369    N        0.36489    0.92104    0.30302    1.000
    Si2370   Si       0.38363    0.84867    0.37546    1.000
    N2371    N        0.36324    0.81011    0.37779    1.000
    N2372    N        0.38231    0.84619    0.46588    1.000
    Si2373   Si       0.35111    0.87565    0.47295    1.000
    N2374    N        0.39491    0.87476    0.40676    1.000
    N2375    N        0.37319    0.94122    0.40551    1.000
    N2376    N        0.36461    0.96614    0.46915    1.000
    Si2377   Si       0.34767    0.97587    0.38395    1.000
    Si2378   Si       0.38057    0.99533    0.44287    1.000
    N2379    N        0.38143    0.00636    0.39778    1.000
    N2380    N        0.37719    0.83054    0.59547    1.000
    Si2381   Si       0.37902    0.79901    0.56592    1.000
    N2382    N        0.35489    0.81158    0.53016    1.000
    Si2383   Si       0.38709    0.82326    0.50219    1.000
    N2384    N        0.36554    0.76097    0.57783    1.000
    N2385    N        0.35948    0.89901    0.51097    1.000
    Si2386   Si       0.36441    0.92007    0.60290    1.000
    Si2387   Si       0.35444    0.97280    0.51149    1.000
    N2388    N        0.38926    0.89984    0.57309    1.000
    N2389    N        0.38974    0.95826    0.53263    1.000
    Si2390   Si       0.39701    0.91431    0.53488    1.000
    N2391    N        0.35533    0.78472    0.64175    1.000
    N2392    N        0.38270    0.81967    0.68413    1.000
    Si2393   Si       0.36202    0.78124    0.68604    1.000
    Si2394   Si       0.38753    0.81589    0.63676    1.000
    Si2395   Si       0.34875    0.84417    0.70383    1.000
    N2396    N        0.35336    0.00544    0.74680    1.000
    N2397    N        0.34668    0.88709    0.62907    1.000
    Si2398   Si       0.38573    0.89160    0.66149    1.000
    N2399    N        0.35766    0.88629    0.69453    1.000
    N2400    N        0.37718    0.99258    0.62523    1.000
    Si2401   Si       0.35563    0.99067    0.70599    1.000
    N2402    N        0.39479    0.97431    0.69366    1.000
    Si2403   Si       0.35157    0.91845    0.72357    1.000
    N2404    N        0.39275    0.92644    0.63424    1.000
    Si2405   Si       0.37194    0.85875    0.82921    1.000
    N2406    N        0.36039    0.78296    0.84518    1.000
    Si2407   Si       0.38824    0.76563    0.76553    1.000
    N2408    N        0.34602    0.76841    0.77771    1.000
    Si2409   Si       0.39661    0.83761    0.76320    1.000
    N2410    N        0.39490    0.83165    0.80536    1.000
    N2411    N        0.35359    0.84581    0.74711    1.000
    N2412    N        0.37772    0.84321    0.86922    1.000
    Si2413   Si       0.39895    0.79620    0.82868    1.000
    N2414    N        0.35002    0.95274    0.79876    1.000
    Si2415   Si       0.38696    0.92617    0.79149    1.000
    N2416    N        0.37858    0.90067    0.82832    1.000
    N2417    N        0.36379    0.95844    0.86421    1.000
    Si2418   Si       0.36259    0.91466    0.86725    1.000
    Si2419   Si       0.34823    0.98190    0.83014    1.000
    N2420    N        0.38853    0.92416    0.74593    1.000
    Si2421   Si       0.35178    0.80859    0.87780    1.000
    N2422    N        0.37231    0.84237    0.96352    1.000
    Si2423   Si       0.35851    0.80297    0.95034    1.000
    N2424    N        0.35483    0.78202    0.91258    1.000
    N2425    N        0.38225    0.77493    0.97582    1.000
    Si2426   Si       0.35966    0.87564    0.99217    1.000
    N2427    N        0.36569    0.97595    0.93216    1.000
    Si2428   Si       0.38928    0.97643    0.89493    1.000
    Si2429   Si       0.37366    0.93579    0.94791    1.000
    N2430    N        0.37706    0.91362    0.90991    1.000
    N2431    N        0.34483    0.91309    0.97112    1.000
    N2432    N        0.42418    0.03863    0.07623    1.000
    Si2433   Si       0.43736    0.09481    0.00761    1.000
    N2434    N        0.40966    0.09255    0.04329    1.000
    Si2435   Si       0.45948    0.06033    0.06437    1.000
    N2436    N        0.43430    0.18878    0.02742    1.000
    N2437    N        0.43700    0.17541    0.08954    1.000
    Si2438   Si       0.41796    0.04657    0.12197    1.000
    N2439    N        0.41491    0.06504    0.16483    1.000
    N2440    N        0.44383    0.05392    0.22876    1.000
    Si2441   Si       0.45232    0.05299    0.18429    1.000
    N2442    N        0.44030    0.19090    0.24717    1.000
    Si2443   Si       0.40442    0.21405    0.15673    1.000
    Si2444   Si       0.45213    0.15587    0.16833    1.000
    Si2445   Si       0.42746    0.15040    0.23036    1.000
    Si2446   Si       0.40427    0.25551    0.21613    1.000
    N2447    N        0.41734    0.14143    0.18817    1.000
    N2448    N        0.44605    0.19663    0.15814    1.000
    N2449    N        0.41101    0.25390    0.14417    1.000
    N2450    N        0.42254    0.09881    0.33335    1.000
    Si2451   Si       0.42580    0.09009    0.29012    1.000
    Si2452   Si       0.45335    0.12147    0.35221    1.000
    N2453    N        0.41007    0.02712    0.34223    1.000
    N2454    N        0.41932    0.01422    0.27316    1.000
    N2455    N        0.42898    0.12856    0.27036    1.000
    Si2456   Si       0.46049    0.03223    0.26450    1.000
    N2457    N        0.46197    0.06252    0.29405    1.000
    Si2458   Si       0.42527    0.21445    0.28009    1.000
    Si2459   Si       0.44948    0.20605    0.35160    1.000
    N2460    N        0.45248    0.16299    0.36624    1.000
    N2461    N        0.40792    0.24891    0.25946    1.000
    N2462    N        0.45445    0.21781    0.30899    1.000
    N2463    N        0.41550    0.22145    0.37263    1.000
    N2464    N        0.42666    0.06788    0.45653    1.000
    Si2465   Si       0.43012    0.07293    0.41501    1.000
    Si2466   Si       0.43637    0.02723    0.47569    1.000
    N2467    N        0.45249    0.03618    0.40237    1.000
    N2468    N        0.45552    0.10670    0.39590    1.000
    Si2469   Si       0.42279    0.01199    0.38198    1.000
    Si2470   Si       0.41798    0.09183    0.49214    1.000
    N2471    N        0.40386    0.13059    0.47868    1.000
    Si2472   Si       0.42395    0.16751    0.47574    1.000
    Si2473   Si       0.41354    0.21303    0.41463    1.000
    N2474    N        0.42458    0.17430    0.42964    1.000
    Si2475   Si       0.45670    0.15140    0.40861    1.000
    N2476    N        0.44181    0.24396    0.43216    1.000
    N2477    N        0.44824    0.08778    0.52343    1.000
    Si2478   Si       0.44222    0.09337    0.56755    1.000
    N2479    N        0.41664    0.01884    0.51497    1.000
    Si2480   Si       0.41018    0.01336    0.60445    1.000
    N2481    N        0.40190    0.10807    0.56645    1.000
    Si2482   Si       0.45748    0.16602    0.54415    1.000
    N2483    N        0.41512    0.17310    0.55101    1.000
    N2484    N        0.41152    0.23890    0.54177    1.000
    Si2485   Si       0.45108    0.24211    0.56161    1.000
    Si2486   Si       0.40591    0.14796    0.58682    1.000
    N2487    N        0.44506    0.10583    0.63683    1.000
    Si2488   Si       0.42297    0.05921    0.72036    1.000
    Si2489   Si       0.41033    0.08266    0.64933    1.000
    N2490    N        0.43627    0.02117    0.70791    1.000
    N2491    N        0.42199    0.04363    0.63567    1.000
    Si2492   Si       0.44428    0.01997    0.66461    1.000
    N2493    N        0.45591    0.08296    0.73402    1.000
    N2494    N        0.41385    0.18977    0.69919    1.000
    Si2495   Si       0.45935    0.14328    0.62185    1.000
    Si2496   Si       0.45510    0.18720    0.71400    1.000
    N2497    N        0.41909    0.16477    0.62576    1.000
    N2498    N        0.44360    0.05482    0.84884    1.000
    N2499    N        0.44227    0.12176    0.86711    1.000
    N2500    N        0.40066    0.12084    0.80456    1.000
    N2501    N        0.42597    0.24625    0.85553    1.000
    Si2502   Si       0.42285    0.14394    0.83510    1.000
    N2503    N        0.44167    0.18351    0.82988    1.000
    N2504    N        0.44503    0.20259    0.75273    1.000
    Si2505   Si       0.44282    0.20727    0.86675    1.000
    Si2506   Si       0.44267    0.24763    0.76007    1.000
    Si2507   Si       0.40706    0.05441    0.87160    1.000
    N2508    N        0.41129    0.08258    0.97552    1.000
    N2509    N        0.41758    0.07418    0.91024    1.000
    Si2510   Si       0.43606    0.11261    0.90925    1.000
    N2511    N        0.42937    0.01776    0.95524    1.000
    Si2512   Si       0.40222    0.05014    0.94509    1.000
    N2513    N        0.41782    0.19044    0.89878    1.000
    N2514    N        0.41203    0.13751    0.93449    1.000
    N2515    N        0.42839    0.24590    0.99337    1.000
    Si2516   Si       0.45553    0.20876    0.99527    1.000
    Si2517   Si       0.42264    0.17935    0.93879    1.000
    N2518    N        0.42678    0.30762    0.03098    1.000
    N2519    N        0.44873    0.34248    0.07884    1.000
    Si2520   Si       0.40939    0.33226    0.06124    1.000
    N2521    N        0.40237    0.36846    0.11770    1.000
    N2522    N        0.45665    0.47766    0.06725    1.000
    Si2523   Si       0.43700    0.46218    0.10091    1.000
    Si2524   Si       0.44160    0.34846    0.12152    1.000
    Si2525   Si       0.44896    0.32222    0.20510    1.000
    Si2526   Si       0.44279    0.27730    0.15962    1.000
    N2527    N        0.43815    0.31995    0.15406    1.000
    N2528    N        0.44335    0.27685    0.20528    1.000
    N2529    N        0.40947    0.34170    0.21537    1.000
    N2530    N        0.40508    0.42438    0.16124    1.000
    Si2531   Si       0.44100    0.50533    0.16250    1.000
    N2532    N        0.40236    0.44855    0.22745    1.000
    N2533    N        0.42706    0.49952    0.12179    1.000
    N2534    N        0.44868    0.47066    0.18486    1.000
    Si2535   Si       0.44662    0.43096    0.16624    1.000
    Si2536   Si       0.44241    0.46865    0.22897    1.000
    N2537    N        0.46164    0.43771    0.12585    1.000
    Si2538   Si       0.42928    0.31999    0.32755    1.000
    N2539    N        0.41484    0.33835    0.36504    1.000
    Si2540   Si       0.42494    0.35238    0.25586    1.000
    N2541    N        0.40909    0.34149    0.29593    1.000
    N2542    N        0.41044    0.28041    0.32185    1.000
    N2543    N        0.45803    0.32397    0.25094    1.000
    Si2544   Si       0.40562    0.26221    0.36183    1.000
    N2545    N        0.42882    0.49367    0.26136    1.000
    Si2546   Si       0.43038    0.48797    0.30401    1.000
    N2547    N        0.41470    0.40847    0.34888    1.000
    N2548    N        0.44420    0.39002    0.25349    1.000
    Si2549   Si       0.41099    0.35630    0.44720    1.000
    Si2550   Si       0.42689    0.27650    0.45736    1.000
    N2551    N        0.42490    0.31741    0.43361    1.000
    Si2552   Si       0.44164    0.32277    0.39331    1.000
    N2553    N        0.44392    0.28139    0.37891    1.000
    N2554    N        0.42777    0.37867    0.48319    1.000
    Si2555   Si       0.40280    0.37700    0.37737    1.000
    Si2556   Si       0.44448    0.42289    0.41868    1.000
    N2557    N        0.42336    0.48169    0.48554    1.000
    Si2558   Si       0.43530    0.49226    0.44608    1.000
    N2559    N        0.42499    0.38363    0.41644    1.000
    N2560    N        0.41776    0.45732    0.42390    1.000
    N2561    N        0.42221    0.30622    0.53405    1.000
    N2562    N        0.43971    0.36776    0.56374    1.000
    Si2563   Si       0.44248    0.34779    0.60244    1.000
    N2564    N        0.44443    0.26092    0.60211    1.000
    Si2565   Si       0.40983    0.28391    0.61543    1.000
    N2566    N        0.40466    0.32512    0.59887    1.000
    Si2567   Si       0.40229    0.33907    0.55505    1.000
    N2568    N        0.41320    0.49530    0.55285    1.000
    Si2569   Si       0.44536    0.48943    0.52283    1.000
    N2570    N        0.43303    0.43271    0.59925    1.000
    Si2571   Si       0.41308    0.40165    0.57681    1.000
    N2572    N        0.39999    0.42142    0.54036    1.000
    N2573    N        0.41749    0.29670    0.65645    1.000
    Si2574   Si       0.44681    0.31496    0.72858    1.000
    N2575    N        0.42685    0.37750    0.63077    1.000
    N2576    N        0.40443    0.31991    0.71996    1.000
    N2577    N        0.45934    0.27225    0.72948    1.000
    Si2578   Si       0.45892    0.30871    0.65828    1.000
    N2579    N        0.42112    0.43883    0.71800    1.000
    Si2580   Si       0.43086    0.41993    0.64080    1.000
    N2581    N        0.43745    0.30235    0.81148    1.000
    N2582    N        0.44893    0.37678    0.81070    1.000
    Si2583   Si       0.45237    0.26799    0.83031    1.000
    Si2584   Si       0.41808    0.38063    0.84069    1.000
    N2585    N        0.40262    0.34109    0.85009    1.000
    N2586    N        0.45013    0.49726    0.79327    1.000
    Si2587   Si       0.43860    0.45462    0.79870    1.000
    N2588    N        0.43475    0.45185    0.84032    1.000
    Si2589   Si       0.40491    0.47882    0.85882    1.000
    N2590    N        0.40108    0.43679    0.78578    1.000
    Si2591   Si       0.44712    0.36629    0.90856    1.000
    N2592    N        0.43741    0.31333    0.96488    1.000
    N2593    N        0.41393    0.37983    0.98050    1.000
    N2594    N        0.40774    0.35379    0.92008    1.000
    Si2595   Si       0.40365    0.33979    0.96083    1.000
    Si2596   Si       0.44165    0.28433    0.99787    1.000
    N2597    N        0.40193    0.49424    0.99361    1.000
    Si2598   Si       0.44958    0.40507    0.97099    1.000
    N2599    N        0.44083    0.39278    0.87549    1.000
    N2600    N        0.42704    0.44229    0.95652    1.000
    Si2601   Si       0.43304    0.46894    0.92339    1.000
    N2602    N        0.43823    0.51015    0.94069    1.000
    N2603    N        0.42209    0.61176    0.05308    1.000
    N2604    N        0.42704    0.54672    0.07106    1.000
    Si2605   Si       0.41581    0.57078    0.03674    1.000
    Si2606   Si       0.40168    0.52052    0.09374    1.000
    N2607    N        0.43420    0.55600    0.00006    1.000
    N2608    N        0.42792    0.73525    0.06779    1.000
    Si2609   Si       0.43173    0.69224    0.06452    1.000
    N2610    N        0.43690    0.68245    0.10585    1.000
    N2611    N        0.43433    0.58591    0.20225    1.000
    N2612    N        0.40593    0.52333    0.18022    1.000
    N2613    N        0.43293    0.63321    0.15678    1.000
    N2614    N        0.43204    0.73739    0.21652    1.000
    Si2615   Si       0.39891    0.73525    0.24355    1.000
    Si2616   Si       0.45623    0.66759    0.14314    1.000
    N2617    N        0.42579    0.67000    0.22056    1.000
    Si2618   Si       0.45754    0.70023    0.21701    1.000
    N2619    N        0.42844    0.57421    0.28365    1.000
    Si2620   Si       0.43926    0.55152    0.31835    1.000
    N2621    N        0.44113    0.57707    0.35208    1.000
    Si2622   Si       0.41385    0.60790    0.36251    1.000
    N2623    N        0.40921    0.52016    0.32420    1.000
    Si2624   Si       0.44330    0.58663    0.24558    1.000
    N2625    N        0.43330    0.66495    0.29591    1.000
    Si2626   Si       0.43336    0.64913    0.25663    1.000
    Si2627   Si       0.45226    0.71276    0.29293    1.000
    N2628    N        0.42630    0.64992    0.36213    1.000
    N2629    N        0.40958    0.72815    0.28704    1.000
    Si2630   Si       0.45353    0.68257    0.36676    1.000
    N2631    N        0.42563    0.61590    0.45998    1.000
    N2632    N        0.41255    0.52116    0.42382    1.000
    N2633    N        0.43997    0.71982    0.39315    1.000
    N2634    N        0.45415    0.75329    0.45396    1.000
    Si2635   Si       0.42643    0.65619    0.48010    1.000
    Si2636   Si       0.44895    0.71469    0.43592    1.000
    N2637    N        0.41601    0.68698    0.45243    1.000
    N2638    N        0.42552    0.55753    0.59247    1.000
    N2639    N        0.41774    0.54851    0.51901    1.000
    Si2640   Si       0.42073    0.51355    0.59274    1.000
    N2641    N        0.45276    0.61831    0.60961    1.000
    Si2642   Si       0.40866    0.68631    0.54179    1.000
    Si2643   Si       0.42132    0.63975    0.59031    1.000
    N2644    N        0.44138    0.67273    0.56838    1.000
    N2645    N        0.40467    0.72922    0.52779    1.000
    Si2646   Si       0.43382    0.57416    0.72227    1.000
    Si2647   Si       0.40574    0.52611    0.67129    1.000
    N2648    N        0.44937    0.51552    0.67576    1.000
    N2649    N        0.44358    0.53714    0.74152    1.000
    N2650    N        0.40785    0.56544    0.68934    1.000
    Si2651   Si       0.39953    0.72609    0.70628    1.000
    N2652    N        0.44101    0.64391    0.67197    1.000
    N2653    N        0.44654    0.71663    0.70279    1.000
    N2654    N        0.42935    0.71655    0.62854    1.000
    Si2655   Si       0.44535    0.67237    0.70297    1.000
    Si2656   Si       0.43598    0.75467    0.65164    1.000
    N2657    N        0.42918    0.66063    0.74396    1.000
    Si2658   Si       0.43018    0.53512    0.78407    1.000
    Si2659   Si       0.44404    0.62448    0.76054    1.000
    N2660    N        0.40729    0.52206    0.85361    1.000
    Si2661   Si       0.44783    0.53797    0.85281    1.000
    N2662    N        0.45256    0.55772    0.81375    1.000
    N2663    N        0.40937    0.59342    0.75320    1.000
    N2664    N        0.45823    0.62440    0.80189    1.000
    N2665    N        0.43491    0.62342    0.86985    1.000
    Si2666   Si       0.43546    0.72885    0.81368    1.000
    N2667    N        0.45081    0.74201    0.85191    1.000
    N2668    N        0.41072    0.69463    0.80862    1.000
    N2669    N        0.43918    0.60100    0.94202    1.000
    Si2670   Si       0.45444    0.60160    0.90157    1.000
    Si2671   Si       0.43893    0.51477    0.98435    1.000
    N2672    N        0.45463    0.55988    0.89071    1.000
    N2673    N        0.42221    0.75612    0.91537    1.000
    N2674    N        0.43041    0.72327    0.97496    1.000
    N2675    N        0.43841    0.69430    0.91008    1.000
    Si2676   Si       0.43791    0.68504    0.95293    1.000
    Si2677   Si       0.40163    0.74382    0.95123    1.000
    Si2678   Si       0.42663    0.72588    0.88401    1.000
    Si2679   Si       0.44475    0.84167    0.09386    1.000
    N2680    N        0.44865    0.79405    0.09423    1.000
    N2681    N        0.40952    0.85152    0.07053    1.000
    N2682    N        0.44167    0.77346    0.01831    1.000
    Si2683   Si       0.41068    0.79945    0.00310    1.000
    Si2684   Si       0.45433    0.76617    0.05815    1.000
    N2685    N        0.44031    0.91472    0.05691    1.000
    N2686    N        0.44328    0.99565    0.02165    1.000
    Si2687   Si       0.41913    0.96833    0.11386    1.000
    Si2688   Si       0.41163    0.00493    0.05027    1.000
    Si2689   Si       0.40447    0.89131    0.05173    1.000
    N2690    N        0.39983    0.97254    0.07502    1.000
    Si2691   Si       0.41557    0.79031    0.12177    1.000
    N2692    N        0.42192    0.83389    0.13331    1.000
    Si2693   Si       0.43975    0.76777    0.18598    1.000
    N2694    N        0.43775    0.80741    0.20641    1.000
    N2695    N        0.40745    0.76505    0.15446    1.000
    Si2696   Si       0.40121    0.85808    0.16128    1.000
    N2697    N        0.42768    0.88796    0.18024    1.000
    Si2698   Si       0.42565    0.92049    0.20820    1.000
    Si2699   Si       0.41930    0.99460    0.18374    1.000
    N2700    N        0.40898    0.00297    0.14003    1.000
    N2701    N        0.40410    0.90724    0.24501    1.000
    N2702    N        0.40385    0.95520    0.19560    1.000
    N2703    N        0.40744    0.93168    0.12883    1.000
    N2704    N        0.45972    0.00817    0.18867    1.000
    Si2705   Si       0.43940    0.78219    0.30613    1.000
    N2706    N        0.41598    0.83243    0.35431    1.000
    Si2707   Si       0.42143    0.87195    0.25918    1.000
    N2708    N        0.43853    0.77389    0.34931    1.000
    Si2709   Si       0.44683    0.84896    0.32754    1.000
    N2710    N        0.42312    0.87586    0.30430    1.000
    N2711    N        0.44205    0.96808    0.31671    1.000
    Si2712   Si       0.44790    0.94247    0.35421    1.000
    N2713    N        0.41312    0.91667    0.35765    1.000
    Si2714   Si       0.40878    0.99778    0.31132    1.000
    Si2715   Si       0.41547    0.84989    0.43762    1.000
    N2716    N        0.44811    0.86779    0.46131    1.000
    N2717    N        0.42869    0.81469    0.41830    1.000
    Si2718   Si       0.42012    0.78025    0.44693    1.000
    Si2719   Si       0.45032    0.81350    0.37864    1.000
    N2720    N        0.41103    0.79065    0.48821    1.000
    N2721    N        0.44065    0.92469    0.42425    1.000
    Si2722   Si       0.44979    0.96789    0.42536    1.000
    N2723    N        0.42395    0.99392    0.45065    1.000
    N2724    N        0.44102    0.97362    0.38288    1.000
    Si2725   Si       0.40745    0.91536    0.40027    1.000
    N2726    N        0.42132    0.79173    0.55669    1.000
    N2727    N        0.44275    0.86422    0.58416    1.000
    Si2728   Si       0.44573    0.77942    0.59115    1.000
    N2729    N        0.41074    0.84962    0.52873    1.000
    Si2730   Si       0.44702    0.83122    0.55545    1.000
    Si2731   Si       0.44160    0.87004    0.50399    1.000
    Si2732   Si       0.42651    0.76658    0.52152    1.000
    Si2733   Si       0.40192    0.86615    0.59677    1.000
    N2734    N        0.43283    0.98565    0.57836    1.000
    Si2735   Si       0.42627    0.98320    0.53656    1.000
    N2736    N        0.43755    0.91115    0.51653    1.000
    N2737    N        0.42145    0.78754    0.62587    1.000
    Si2738   Si       0.41933    0.80307    0.70380    1.000
    N2739    N        0.41040    0.76425    0.68608    1.000
    N2740    N        0.40825    0.85950    0.64059    1.000
    Si2741   Si       0.44297    0.86019    0.67175    1.000
    N2742    N        0.45612    0.82727    0.69947    1.000
    N2743    N        0.40291    0.79957    0.74431    1.000
    Si2744   Si       0.40274    0.96372    0.65002    1.000
    Si2745   Si       0.42632    0.98205    0.72563    1.000
    Si2746   Si       0.42516    0.90874    0.72999    1.000
    N2747    N        0.42183    0.89332    0.68927    1.000
    N2748    N        0.44092    0.98156    0.64294    1.000
    N2749    N        0.45298    0.94519    0.72476    1.000
    N2750    N        0.43223    0.80611    0.85640    1.000
    N2751    N        0.42466    0.87286    0.75718    1.000
    N2752    N        0.41189    0.76418    0.80218    1.000
    Si2753   Si       0.45179    0.89071    0.78838    1.000
    N2754    N        0.43130    0.92959    0.79537    1.000
    N2755    N        0.41786    0.98865    0.76839    1.000
    Si2756   Si       0.44743    0.96794    0.79371    1.000
    N2757    N        0.45172    0.98797    0.83246    1.000
    Si2758   Si       0.46119    0.96751    0.87128    1.000
    Si2759   Si       0.42043    0.84110    0.87963    1.000
    N2760    N        0.42829    0.82632    0.92040    1.000
    Si2761   Si       0.41395    0.85061    0.95408    1.000
    N2762    N        0.43479    0.83301    0.98595    1.000
    Si2763   Si       0.45111    0.78875    0.91758    1.000
    N2764    N        0.43640    0.88169    0.87881    1.000
    N2765    N        0.42819    0.95244    0.89516    1.000
    Si2766   Si       0.42931    0.90993    0.98746    1.000
    N2767    N        0.42883    0.89157    0.94789    1.000
    N2768    N        0.40824    0.94648    0.97492    1.000
    Si2769   Si       0.43211    0.98351    0.98031    1.000
    Si2770   Si       0.42107    0.91041    0.90736    1.000
    N2771    N        0.48850    0.02579    0.06913    1.000
    N2772    N        0.46818    0.06708    0.02128    1.000
    Si2773   Si       0.48549    0.01493    0.11096    1.000
    N2774    N        0.46340    0.09895    0.08758    1.000
    N2775    N        0.51708    0.02015    0.00910    1.000
    N2776    N        0.49429    0.21477    0.01216    1.000
    N2777    N        0.48027    0.22970    0.07380    1.000
    N2778    N        0.49232    0.16090    0.06573    1.000
    Si2779   Si       0.46300    0.19221    0.05982    1.000
    Si2780   Si       0.49713    0.25528    0.04167    1.000
    Si2781   Si       0.46309    0.14050    0.09267    1.000
    Si2782   Si       0.51824    0.07009    0.19871    1.000
    N2783    N        0.46375    0.04883    0.12552    1.000
    Si2784   Si       0.48095    0.08963    0.12996    1.000
    N2785    N        0.48356    0.08019    0.17453    1.000
    N2786    N        0.51523    0.03396    0.22274    1.000
    Si2787   Si       0.51597    0.15731    0.13779    1.000
    Si2788   Si       0.51363    0.13821    0.20824    1.000
    Si2789   Si       0.48238    0.22028    0.15994    1.000
    N2790    N        0.47527    0.13689    0.13539    1.000
    Si2791   Si       0.47963    0.19365    0.22974    1.000
    N2792    N        0.47518    0.15579    0.20547    1.000
    N2793    N        0.48632    0.22664    0.20350    1.000
    N2794    N        0.49058    0.11469    0.33175    1.000
    Si2795   Si       0.49783    0.07316    0.31609    1.000
    N2796    N        0.50633    0.06009    0.35763    1.000
    Si2797   Si       0.49341    0.22855    0.29047    1.000
    N2798    N        0.50676    0.19479    0.26450    1.000
    N2799    N        0.48493    0.22517    0.37209    1.000
    N2800    N        0.47716    0.03954    0.48432    1.000
    Si2801   Si       0.49365    0.02074    0.41186    1.000
    Si2802   Si       0.49528    0.08468    0.39113    1.000
    N2803    N        0.51316    0.06022    0.42174    1.000
    N2804    N        0.48955    0.16629    0.43073    1.000
    Si2805   Si       0.49416    0.17566    0.47431    1.000
    N2806    N        0.51063    0.21862    0.48238    1.000
    Si2807   Si       0.47012    0.25300    0.40010    1.000
    Si2808   Si       0.49891    0.03320    0.58134    1.000
    Si2809   Si       0.48736    0.06689    0.51727    1.000
    N2810    N        0.50515    0.03383    0.53854    1.000
    N2811    N        0.46990    0.06378    0.58952    1.000
    N2812    N        0.51829    0.09853    0.52064    1.000
    N2813    N        0.47277    0.20328    0.56012    1.000
    Si2814   Si       0.50997    0.20786    0.58231    1.000
    N2815    N        0.49300    0.22086    0.62057    1.000
    N2816    N        0.46128    0.16564    0.50044    1.000
    N2817    N        0.45975    0.13580    0.57824    1.000
    Si2818   Si       0.47456    0.07511    0.63193    1.000
    Si2819   Si       0.48559    0.11017    0.71994    1.000
    N2820    N        0.47997    0.04400    0.66350    1.000
    Si2821   Si       0.51380    0.02642    0.68324    1.000
    N2822    N        0.51663    0.08989    0.63250    1.000
    Si2823   Si       0.48689    0.25785    0.70149    1.000
    Si2824   Si       0.49856    0.19908    0.65746    1.000
    N2825    N        0.46241    0.14575    0.71563    1.000
    N2826    N        0.47957    0.21458    0.69317    1.000
    N2827    N        0.49297    0.15499    0.64686    1.000
    N2828    N        0.47996    0.04260    0.78634    1.000
    N2829    N        0.47029    0.11042    0.80935    1.000
    N2830    N        0.50648    0.03465    0.84759    1.000
    Si2831   Si       0.47339    0.08328    0.77463    1.000
    N2832    N        0.50824    0.10738    0.75920    1.000
    Si2833   Si       0.46848    0.02712    0.82602    1.000
    Si2834   Si       0.50728    0.01425    0.76537    1.000
    Si2835   Si       0.46729    0.09209    0.84839    1.000
    Si2836   Si       0.50496    0.13247    0.79631    1.000
    N2837    N        0.50547    0.09572    0.86791    1.000
    N2838    N        0.50029    0.17341    0.78397    1.000
    N2839    N        0.46338    0.24180    0.79793    1.000
    Si2840   Si       0.46404    0.19710    0.79382    1.000
    N2841    N        0.49400    0.04547    0.95002    1.000
    N2842    N        0.47582    0.12428    0.92450    1.000
    Si2843   Si       0.51359    0.12119    0.90231    1.000
    Si2844   Si       0.50008    0.05492    0.99321    1.000
    Si2845   Si       0.47149    0.01122    0.93775    1.000
    N2846    N        0.45939    0.12781    0.99174    1.000
    Si2847   Si       0.47961    0.14948    0.96133    1.000
    N2848    N        0.48012    0.20475    0.88750    1.000
    Si2849   Si       0.48281    0.21923    0.92986    1.000
    N2850    N        0.46346    0.19183    0.95557    1.000
    N2851    N        0.48501    0.35009    0.02041    1.000
    N2852    N        0.48713    0.29086    0.07439    1.000
    N2853    N        0.48180    0.28554    0.01228    1.000
    Si2854   Si       0.46763    0.31814    0.04746    1.000
    Si2855   Si       0.49177    0.25857    0.10247    1.000
    Si2856   Si       0.50691    0.31809    0.99833    1.000
    N2857    N        0.51538    0.47031    0.04722    1.000
    Si2858   Si       0.49586    0.39159    0.02870    1.000
    N2859    N        0.46885    0.48839    0.00351    1.000
    Si2860   Si       0.47621    0.45198    0.03520    1.000
    Si2861   Si       0.48597    0.40845    0.10581    1.000
    N2862    N        0.48132    0.41345    0.06412    1.000
    N2863    N        0.47495    0.41907    0.00209    1.000
    Si2864   Si       0.50497    0.50265    0.02125    1.000
    Si2865   Si       0.49407    0.37575    0.17027    1.000
    N2866    N        0.47587    0.37301    0.13036    1.000
    Si2867   Si       0.48451    0.26573    0.22248    1.000
    N2868    N        0.48590    0.33949    0.19266    1.000
    N2869    N        0.47674    0.25868    0.14157    1.000
    Si2870   Si       0.47614    0.40900    0.23466    1.000
    N2871    N        0.47083    0.40561    0.19229    1.000
    N2872    N        0.51643    0.40259    0.24867    1.000
    N2873    N        0.47749    0.45131    0.24395    1.000
    Si2874   Si       0.48605    0.30595    0.27823    1.000
    Si2875   Si       0.49123    0.34969    0.34303    1.000
    N2876    N        0.47099    0.32336    0.31557    1.000
    N2877    N        0.48331    0.26318    0.26553    1.000
    N2878    N        0.48851    0.39257    0.32816    1.000
    Si2879   Si       0.48437    0.49814    0.34373    1.000
    N2880    N        0.45780    0.46470    0.33000    1.000
    Si2881   Si       0.45884    0.42081    0.34344    1.000
    N2882    N        0.48595    0.35722    0.45687    1.000
    Si2883   Si       0.50445    0.35487    0.41777    1.000
    N2884    N        0.47811    0.34538    0.38504    1.000
    Si2885   Si       0.50920    0.33058    0.48383    1.000
    N2886    N        0.50626    0.26368    0.42360    1.000
    N2887    N        0.46267    0.27713    0.48275    1.000
    Si2888   Si       0.49857    0.25736    0.46715    1.000
    Si2889   Si       0.46834    0.39126    0.47914    1.000
    N2890    N        0.47171    0.42672    0.45351    1.000
    Si2891   Si       0.50055    0.45912    0.45268    1.000
    N2892    N        0.47811    0.49591    0.44265    1.000
    N2893    N        0.51512    0.46464    0.49396    1.000
    N2894    N        0.47293    0.42508    0.38448    1.000
    N2895    N        0.48544    0.33409    0.52033    1.000
    N2896    N        0.48104    0.27191    0.54912    1.000
    Si2897   Si       0.48056    0.36821    0.54644    1.000
    N2898    N        0.50931    0.37244    0.57963    1.000
    Si2899   Si       0.46223    0.29700    0.52169    1.000
    Si2900   Si       0.51081    0.35028    0.61733    1.000
    Si2901   Si       0.48693    0.26447    0.61990    1.000
    N2902    N        0.47418    0.32594    0.61986    1.000
    N2903    N        0.48812    0.39789    0.51538    1.000
    Si2904   Si       0.50394    0.43528    0.52540    1.000
    N2905    N        0.50153    0.43593    0.60382    1.000
    N2906    N        0.47108    0.45664    0.54402    1.000
    Si2907   Si       0.46641    0.45555    0.58656    1.000
    Si2908   Si       0.51644    0.50572    0.50799    1.000
    N2909    N        0.45935    0.49574    0.60400    1.000
    Si2910   Si       0.49448    0.36575    0.69211    1.000
    N2911    N        0.48499    0.27497    0.66321    1.000
    N2912    N        0.50827    0.37546    0.65305    1.000
    N2913    N        0.46332    0.33489    0.69153    1.000
    N2914    N        0.47985    0.39968    0.71731    1.000
    N2915    N        0.46328    0.43766    0.66370    1.000
    N2916    N        0.48096    0.47416    0.72489    1.000
    Si2917   Si       0.50355    0.44771    0.64746    1.000
    N2918    N        0.50795    0.49268    0.64916    1.000
    Si2919   Si       0.46190    0.43689    0.70618    1.000
    N2920    N        0.49511    0.33119    0.83055    1.000
    N2921    N        0.48733    0.27339    0.85555    1.000
    N2922    N        0.46983    0.33540    0.76053    1.000
    Si2923   Si       0.51172    0.34685    0.75553    1.000
    Si2924   Si       0.46085    0.33559    0.80376    1.000
    Si2925   Si       0.49498    0.31402    0.87164    1.000
    N2926    N        0.51473    0.38029    0.78297    1.000
    N2927    N        0.47478    0.43541    0.78468    1.000
    N2928    N        0.49854    0.41991    0.84678    1.000
    Si2929   Si       0.48685    0.40081    0.80741    1.000
    Si2930   Si       0.50183    0.45792    0.75986    1.000
    Si2931   Si       0.46168    0.43044    0.86743    1.000
    Si2932   Si       0.47094    0.30484    0.93838    1.000
    N2933    N        0.50917    0.31670    0.95673    1.000
    N2934    N        0.46484    0.32463    0.90108    1.000
    N2935    N        0.47276    0.26122    0.93454    1.000
    Si2936   Si       0.51566    0.38662    0.93171    1.000
    Si2937   Si       0.50120    0.48930    0.88305    1.000
    N2938    N        0.47172    0.38438    0.93951    1.000
    N2939    N        0.46806    0.46080    0.89701    1.000
    N2940    N        0.49457    0.60609    0.06677    1.000
    N2941    N        0.49410    0.53946    0.04006    1.000
    N2942    N        0.48912    0.53180    0.10340    1.000
    Si2943   Si       0.46290    0.52213    0.07025    1.000
    N2944    N        0.47614    0.61376    0.00271    1.000
    Si2945   Si       0.50903    0.62811    0.10473    1.000
    Si2946   Si       0.46287    0.62539    0.04209    1.000
    Si2947   Si       0.48749    0.68475    0.00551    1.000
    N2948    N        0.49418    0.72724    0.00242    1.000
    N2949    N        0.45998    0.67035    0.03756    1.000
    Si2950   Si       0.46405    0.60331    0.17273    1.000
    N2951    N        0.48433    0.59956    0.13146    1.000
    N2952    N        0.50143    0.59261    0.19422    1.000
    Si2953   Si       0.49401    0.55072    0.20582    1.000
    Si2954   Si       0.49519    0.55946    0.13877    1.000
    N2955    N        0.47550    0.53454    0.17025    1.000
    Si2956   Si       0.50911    0.69973    0.15331    1.000
    N2957    N        0.47262    0.69397    0.17767    1.000
    N2958    N        0.49757    0.66438    0.12789    1.000
    Si2959   Si       0.49857    0.54358    0.28086    1.000
    N2960    N        0.47375    0.52463    0.30973    1.000
    Si2961   Si       0.50969    0.61502    0.26927    1.000
    N2962    N        0.46819    0.62143    0.25621    1.000
    N2963    N        0.51411    0.58111    0.29581    1.000
    N2964    N        0.50291    0.59482    0.37063    1.000
    N2965    N        0.47670    0.55457    0.24358    1.000
    N2966    N        0.47273    0.69557    0.25781    1.000
    Si2967   Si       0.51197    0.75271    0.28339    1.000
    Si2968   Si       0.51335    0.68645    0.27343    1.000
    N2969    N        0.46896    0.75749    0.28798    1.000
    Si2970   Si       0.46815    0.74513    0.36702    1.000
    Si2971   Si       0.51684    0.69812    0.34353    1.000
    N2972    N        0.46442    0.71180    0.33513    1.000
    N2973    N        0.49486    0.66494    0.36857    1.000
    Si2974   Si       0.47200    0.56900    0.38208    1.000
    N2975    N        0.48136    0.52629    0.37850    1.000
    N2976    N        0.47028    0.56659    0.42444    1.000
    Si2977   Si       0.49586    0.52984    0.42287    1.000
    N2978    N        0.48102    0.57921    0.48810    1.000
    Si2979   Si       0.46502    0.59811    0.45289    1.000
    Si2980   Si       0.50698    0.63068    0.39536    1.000
    N2981    N        0.48659    0.63130    0.43325    1.000
    N2982    N        0.51636    0.72753    0.49521    1.000
    N2983    N        0.46638    0.66212    0.49733    1.000
    N2984    N        0.51183    0.73135    0.37334    1.000
    N2985    N        0.48916    0.69974    0.43552    1.000
    Si2986   Si       0.49381    0.66373    0.45999    1.000
    N2987    N        0.47568    0.57888    0.55423    1.000
    N2988    N        0.47670    0.51776    0.51876    1.000
    Si2989   Si       0.51436    0.60047    0.55761    1.000
    Si2990   Si       0.46348    0.57798    0.59523    1.000
    Si2991   Si       0.45927    0.55836    0.51962    1.000
    N2992    N        0.50931    0.64113    0.54633    1.000
    N2993    N        0.49525    0.70087    0.55844    1.000
    Si2994   Si       0.47334    0.66510    0.53916    1.000
    Si2995   Si       0.50379    0.73692    0.53805    1.000
    N2996    N        0.47454    0.74814    0.59894    1.000
    Si2997   Si       0.46350    0.70547    0.59823    1.000
    N2998    N        0.46978    0.76135    0.52277    1.000
    Si2999   Si       0.46852    0.51377    0.71436    1.000
    N3000    N        0.48111    0.55596    0.62925    1.000
    Si3001   Si       0.47224    0.51494    0.63998    1.000
    N3002    N        0.50562    0.53443    0.70745    1.000
    N3003    N        0.49941    0.61068    0.66374    1.000
    Si3004   Si       0.49885    0.62165    0.70620    1.000
    N3005    N        0.46595    0.60476    0.72960    1.000
    Si3006   Si       0.51428    0.58069    0.63809    1.000
    Si3007   Si       0.47728    0.74659    0.70734    1.000
    N3008    N        0.48752    0.67588    0.62670    1.000
    Si3009   Si       0.50286    0.75868    0.62947    1.000
    N3010    N        0.49013    0.66492    0.70982    1.000
    Si3011   Si       0.47221    0.63786    0.64346    1.000
    N3012    N        0.51699    0.72911    0.71592    1.000
    N3013    N        0.49596    0.60010    0.84757    1.000
    Si3014   Si       0.48721    0.58740    0.80662    1.000
    Si3015   Si       0.49219    0.51174    0.80745    1.000
    N3016    N        0.51423    0.54915    0.80146    1.000
    N3017    N        0.48232    0.51099    0.85024    1.000
    Si3018   Si       0.46678    0.63584    0.84230    1.000
    N3019    N        0.47185    0.72561    0.78946    1.000
    Si3020   Si       0.49934    0.69603    0.80543    1.000
    N3021    N        0.48351    0.67550    0.84182    1.000
    N3022    N        0.51392    0.67512    0.77080    1.000
    N3023    N        0.49248    0.62243    0.90543    1.000
    N3024    N        0.50546    0.51303    0.91847    1.000
    N3025    N        0.48550    0.55861    0.95789    1.000
    Si3026   Si       0.46809    0.53716    0.92464    1.000
    Si3027   Si       0.45849    0.58318    0.97753    1.000
    Si3028   Si       0.46163    0.75031    0.98702    1.000
    Si3029   Si       0.50292    0.65345    0.93341    1.000
    N3030    N        0.47768    0.67163    0.96503    1.000
    N3031    N        0.48116    0.84247    0.06856    1.000
    Si3032   Si       0.50392    0.81420    0.04495    1.000
    N3033    N        0.49734    0.77119    0.05202    1.000
    Si3034   Si       0.50193    0.87314    0.09241    1.000
    N3035    N        0.50467    0.82103    0.00225    1.000
    N3036    N        0.46593    0.87676    0.11589    1.000
    N3037    N        0.50096    0.96090    0.04547    1.000
    Si3038   Si       0.47735    0.92246    0.03916    1.000
    N3039    N        0.50884    0.90315    0.06292    1.000
    Si3040   Si       0.48666    0.99886    0.03434    1.000
    N3041    N        0.46161    0.97750    0.10999    1.000
    N3042    N        0.46921    0.91864    0.99700    1.000
    N3043    N        0.46249    0.86809    0.24100    1.000
    N3044    N        0.50028    0.81121    0.23791    1.000
    Si3045   Si       0.47168    0.83349    0.21297    1.000
    N3046    N        0.48703    0.84890    0.17406    1.000
    N3047    N        0.48199    0.76787    0.18090    1.000
    Si3048   Si       0.51030    0.77749    0.21416    1.000
    Si3049   Si       0.51835    0.77149    0.15243    1.000
    Si3050   Si       0.46608    0.88266    0.15754    1.000
    N3051    N        0.46287    0.93717    0.21873    1.000
    N3052    N        0.49292    0.91654    0.16203    1.000
    Si3053   Si       0.50293    0.93289    0.20194    1.000
    Si3054   Si       0.49189    0.99642    0.21786    1.000
    Si3055   Si       0.50042    0.81946    0.28216    1.000
    N3056    N        0.51129    0.86135    0.29079    1.000
    N3057    N        0.47300    0.84990    0.36490    1.000
    N3058    N        0.46022    0.82032    0.29910    1.000
    N3059    N        0.48934    0.92701    0.28740    1.000
    N3060    N        0.48468    0.92067    0.35769    1.000
    N3061    N        0.48182    0.99501    0.26050    1.000
    Si3062   Si       0.51205    0.92964    0.32507    1.000
    Si3063   Si       0.47825    0.96914    0.29338    1.000
    Si3064   Si       0.49412    0.89250    0.26179    1.000
    N3065    N        0.51408    0.97367    0.31797    1.000
    N3066    N        0.48285    0.78462    0.38788    1.000
    N3067    N        0.51255    0.79660    0.47985    1.000
    Si3068   Si       0.49768    0.88266    0.37902    1.000
    N3069    N        0.50535    0.88492    0.42359    1.000
    Si3070   Si       0.48734    0.75953    0.48189    1.000
    Si3071   Si       0.47115    0.89965    0.44562    1.000
    Si3072   Si       0.51759    0.96134    0.45651    1.000
    N3073    N        0.48819    0.93051    0.47196    1.000
    N3074    N        0.48879    0.98542    0.43633    1.000
    N3075    N        0.47466    0.80935    0.58334    1.000
    N3076    N        0.47443    0.84502    0.52162    1.000
    Si3077   Si       0.51243    0.83259    0.50645    1.000
    Si3078   Si       0.51430    0.79582    0.57241    1.000
    N3079    N        0.51047    0.88078    0.58597    1.000
    Si3080   Si       0.47322    0.88356    0.60806    1.000
    Si3081   Si       0.51266    0.92360    0.58154    1.000
    N3082    N        0.50906    0.93263    0.53908    1.000
    N3083    N        0.49800    0.99380    0.59963    1.000
    Si3084   Si       0.47473    0.93410    0.51371    1.000
    N3085    N        0.47326    0.92810    0.60425    1.000
    N3086    N        0.46519    0.97511    0.51788    1.000
    Si3087   Si       0.49601    0.00556    0.50697    1.000
    Si3088   Si       0.46335    0.96956    0.60771    1.000
    N3089    N        0.47574    0.77502    0.73945    1.000
    Si3090   Si       0.48881    0.81514    0.72819    1.000
    N3091    N        0.47813    0.87364    0.64865    1.000
    Si3092   Si       0.51735    0.87902    0.66570    1.000
    N3093    N        0.47879    0.76033    0.66400    1.000
    Si3094   Si       0.49402    0.94382    0.74404    1.000
    N3095    N        0.51489    0.98334    0.67770    1.000
    Si3096   Si       0.49656    0.83550    0.80667    1.000
    N3097    N        0.48666    0.79343    0.81514    1.000
    N3098    N        0.49767    0.83715    0.76449    1.000
    N3099    N        0.47131    0.86917    0.81938    1.000
    Si3100   Si       0.49003    0.76572    0.77980    1.000
    Si3101   Si       0.46924    0.78283    0.85170    1.000
    Si3102   Si       0.51373    0.87589    0.74930    1.000
    Si3103   Si       0.47203    0.89008    0.85611    1.000
    N3104    N        0.48733    0.97608    0.77209    1.000
    N3105    N        0.48420    0.93166    0.86103    1.000
    N3106    N        0.48621    0.90482    0.76438    1.000
    N3107    N        0.48811    0.79001    0.89107    1.000
    N3108    N        0.50288    0.84036    0.94268    1.000
    N3109    N        0.50459    0.87334    0.88125    1.000
    Si3110   Si       0.47282    0.82059    0.97339    1.000
    N3111    N        0.46792    0.78109    0.95739    1.000
    Si3112   Si       0.51418    0.87741    0.92314    1.000
    Si3113   Si       0.49557    0.93978    0.96970    1.000
    N3114    N        0.47431    0.97630    0.96513    1.000
    N3115    N        0.48384    0.99473    0.89848    1.000
    N3116    N        0.50525    0.91947    0.93202    1.000
    N3117    N        0.55438    0.11401    0.05494    1.000
    Si3118   Si       0.56272    0.10896    0.10097    1.000
    N3119    N        0.57486    0.06182    0.10471    1.000
    N3120    N        0.52280    0.08630    0.11743    1.000
    Si3121   Si       0.55986    0.02733    0.00013    1.000
    N3122    N        0.54353    0.14832    0.10664    1.000
    N3123    N        0.55504    0.18551    0.04948    1.000
    Si3124   Si       0.53781    0.21047    0.01854    1.000
    Si3125   Si       0.53385    0.15085    0.06470    1.000
    N3126    N        0.53944    0.25164    0.03393    1.000
    N3127    N        0.52700    0.01640    0.12940    1.000
    Si3128   Si       0.54575    0.05457    0.13510    1.000
    N3129    N        0.55620    0.06181    0.17564    1.000
    N3130    N        0.56859    0.06860    0.24084    1.000
    N3131    N        0.51648    0.10180    0.22892    1.000
    N3132    N        0.53357    0.13544    0.16868    1.000
    N3133    N        0.56861    0.23887    0.16837    1.000
    Si3134   Si       0.57061    0.15268    0.18557    1.000
    N3135    N        0.54503    0.16648    0.21972    1.000
    Si3136   Si       0.55086    0.22635    0.13117    1.000
    N3137    N        0.51644    0.20059    0.14058    1.000
    N3138    N        0.56549    0.11385    0.33996    1.000
    Si3139   Si       0.54449    0.09705    0.26123    1.000
    Si3140   Si       0.54099    0.03610    0.25662    1.000
    N3141    N        0.56768    0.02409    0.33733    1.000
    Si3142   Si       0.54318    0.04077    0.36976    1.000
    N3143    N        0.52616    0.06522    0.28510    1.000
    Si3144   Si       0.52674    0.13082    0.35089    1.000
    N3145    N        0.55376    0.13540    0.27983    1.000
    Si3146   Si       0.56736    0.23958    0.29362    1.000
    Si3147   Si       0.54371    0.17435    0.26166    1.000
    N3148    N        0.52874    0.23425    0.31476    1.000
    Si3149   Si       0.52456    0.21430    0.35434    1.000
    N3150    N        0.52533    0.17300    0.34456    1.000
    N3151    N        0.56903    0.02124    0.43957    1.000
    Si3152   Si       0.55544    0.06189    0.42906    1.000
    N3153    N        0.57281    0.06805    0.38983    1.000
    N3154    N        0.57371    0.09389    0.45304    1.000
    Si3155   Si       0.56801    0.00631    0.47863    1.000
    N3156    N        0.52149    0.12003    0.39430    1.000
    N3157    N        0.56337    0.21902    0.36996    1.000
    N3158    N        0.56727    0.16255    0.42312    1.000
    N3159    N        0.52489    0.14586    0.47463    1.000
    Si3160   Si       0.57795    0.20262    0.40820    1.000
    Si3161   Si       0.52839    0.14499    0.42991    1.000
    N3162    N        0.56737    0.23777    0.43152    1.000
    N3163    N        0.53965    0.03731    0.59099    1.000
    Si3164   Si       0.55224    0.03449    0.54455    1.000
    N3165    N        0.56141    0.04271    0.50169    1.000
    Si3166   Si       0.54554    0.13146    0.51229    1.000
    N3167    N        0.54286    0.18413    0.59639    1.000
    N3168    N        0.53061    0.23057    0.55052    1.000
    N3169    N        0.55108    0.17297    0.52814    1.000
    Si3170   Si       0.54491    0.21473    0.51270    1.000
    Si3171   Si       0.57008    0.17715    0.56541    1.000
    Si3172   Si       0.54924    0.06143    0.62680    1.000
    N3173    N        0.55252    0.03695    0.66298    1.000
    Si3174   Si       0.54607    0.11015    0.73747    1.000
    Si3175   Si       0.56311    0.03522    0.74161    1.000
    N3176    N        0.52424    0.11336    0.69906    1.000
    Si3177   Si       0.52371    0.12532    0.65719    1.000
    N3178    N        0.52146    0.02933    0.72725    1.000
    N3179    N        0.57390    0.07855    0.74413    1.000
    N3180    N        0.56358    0.15106    0.74498    1.000
    N3181    N        0.53960    0.20340    0.66686    1.000
    Si3182   Si       0.55789    0.23570    0.68833    1.000
    N3183    N        0.56226    0.14052    0.64287    1.000
    Si3184   Si       0.56195    0.18334    0.63517    1.000
    N3185    N        0.57797    0.21408    0.72002    1.000
    N3186    N        0.56298    0.07590    0.82781    1.000
    Si3187   Si       0.53489    0.06573    0.85895    1.000
    N3188    N        0.55001    0.01684    0.78192    1.000
    N3189    N        0.54550    0.13765    0.80953    1.000
    N3190    N        0.56274    0.20703    0.79410    1.000
    N3191    N        0.54165    0.22585    0.86097    1.000
    Si3192   Si       0.54518    0.17058    0.78137    1.000
    N3193    N        0.56069    0.03743    0.95617    1.000
    Si3194   Si       0.54577    0.11306    0.96680    1.000
    Si3195   Si       0.53225    0.05387    0.92985    1.000
    N3196    N        0.54682    0.03692    0.89308    1.000
    N3197    N        0.53838    0.09585    0.92677    1.000
    N3198    N        0.53034    0.08546    0.99611    1.000
    N3199    N        0.56286    0.20608    0.98265    1.000
    N3200    N        0.53434    0.15682    0.89037    1.000
    N3201    N        0.52750    0.21220    0.92611    1.000
    Si3202   Si       0.55203    0.18292    0.94693    1.000
    Si3203   Si       0.52254    0.19927    0.88669    1.000
    N3204    N        0.52527    0.15058    0.96417    1.000
    N3205    N        0.54612    0.31606    0.01697    1.000
    Si3206   Si       0.55566    0.34878    0.04382    1.000
    N3207    N        0.55776    0.32958    0.08214    1.000
    Si3208   Si       0.57038    0.28039    0.02223    1.000
    Si3209   Si       0.55742    0.29916    0.11250    1.000
    N3210    N        0.53464    0.26155    0.11259    1.000
    N3211    N        0.53792    0.38458    0.03227    1.000
    Si3212   Si       0.53760    0.45614    0.08199    1.000
    N3213    N        0.55145    0.49063    0.10704    1.000
    N3214    N        0.52665    0.42626    0.11376    1.000
    N3215    N        0.57488    0.43899    0.06487    1.000
    Si3216   Si       0.56168    0.34627    0.18057    1.000
    N3217    N        0.55255    0.31337    0.15325    1.000
    Si3218   Si       0.55485    0.27980    0.18101    1.000
    N3219    N        0.55389    0.34414    0.22441    1.000
    Si3220   Si       0.54850    0.30312    0.24123    1.000
    N3221    N        0.52434    0.28102    0.21333    1.000
    N3222    N        0.53808    0.38230    0.16632    1.000
    N3223    N        0.58082    0.40534    0.22228    1.000
    Si3224   Si       0.57388    0.44636    0.20663    1.000
    Si3225   Si       0.55489    0.41541    0.14409    1.000
    N3226    N        0.56600    0.45315    0.16381    1.000
    N3227    N        0.54595    0.46917    0.23344    1.000
    Si3228   Si       0.55454    0.33693    0.30786    1.000
    N3229    N        0.53462    0.34529    0.34519    1.000
    N3230    N        0.52812    0.31675    0.27877    1.000
    N3231    N        0.56956    0.26909    0.26231    1.000
    N3232    N        0.56297    0.37991    0.29057    1.000
    Si3233   Si       0.55407    0.38145    0.24569    1.000
    N3234    N        0.52916    0.43941    0.29868    1.000
    Si3235   Si       0.55040    0.45602    0.33153    1.000
    N3236    N        0.54808    0.41938    0.35568    1.000
    Si3237   Si       0.53103    0.40006    0.31687    1.000
    N3238    N        0.52255    0.48064    0.35568    1.000
    Si3239   Si       0.51900    0.44492    0.25643    1.000
    N3240    N        0.52355    0.28851    0.48161    1.000
    N3241    N        0.56926    0.28648    0.38186    1.000
    Si3242   Si       0.55597    0.32765    0.37958    1.000
    Si3243   Si       0.54816    0.27898    0.42439    1.000
    N3244    N        0.53523    0.32479    0.41998    1.000
    N3245    N        0.54836    0.34771    0.49469    1.000
    N3246    N        0.52946    0.38902    0.40701    1.000
    Si3247   Si       0.56932    0.39515    0.39102    1.000
    N3248    N        0.52977    0.45549    0.42131    1.000
    Si3249   Si       0.57320    0.46667    0.42131    1.000
    Si3250   Si       0.51548    0.42647    0.39037    1.000
    N3251    N        0.55877    0.29223    0.53814    1.000
    N3252    N        0.52564    0.27567    0.60124    1.000
    Si3253   Si       0.52436    0.27227    0.55779    1.000
    N3254    N        0.57997    0.35119    0.55927    1.000
    Si3255   Si       0.56431    0.30361    0.49496    1.000
    Si3256   Si       0.56038    0.29205    0.62211    1.000
    N3257    N        0.54967    0.33443    0.62366    1.000
    N3258    N        0.54738    0.50234    0.54179    1.000
    N3259    N        0.54049    0.42795    0.54670    1.000
    Si3260   Si       0.56605    0.46400    0.54906    1.000
    Si3261   Si       0.53085    0.41088    0.58445    1.000
    N3262    N        0.56316    0.39907    0.61040    1.000
    N3263    N        0.57842    0.46380    0.59153    1.000
    N3264    N        0.57235    0.26784    0.66040    1.000
    Si3265   Si       0.55280    0.28565    0.74058    1.000
    N3266    N        0.52615    0.34850    0.71483    1.000
    Si3267   Si       0.56987    0.35212    0.71428    1.000
    N3268    N        0.52904    0.25811    0.71431    1.000
    N3269    N        0.56309    0.49482    0.68858    1.000
    Si3270   Si       0.55671    0.45336    0.70326    1.000
    N3271    N        0.53860    0.43302    0.66756    1.000
    Si3272   Si       0.54906    0.39308    0.65159    1.000
    N3273    N        0.53798    0.43678    0.74020    1.000
    N3274    N        0.54862    0.28184    0.82693    1.000
    N3275    N        0.56059    0.34387    0.84101    1.000
    Si3276   Si       0.53455    0.32262    0.81336    1.000
    N3277    N        0.53479    0.31361    0.77080    1.000
    Si3278   Si       0.52889    0.26711    0.86100    1.000
    Si3279   Si       0.56282    0.47133    0.78958    1.000
    Si3280   Si       0.54885    0.40484    0.76669    1.000
    N3281    N        0.56738    0.40818    0.86189    1.000
    N3282    N        0.56586    0.42914    0.79917    1.000
    N3283    N        0.53758    0.47377    0.86600    1.000
    Si3284   Si       0.57505    0.49522    0.85735    1.000
    N3285    N        0.51990    0.48274    0.79032    1.000
    Si3286   Si       0.56273    0.36738    0.87424    1.000
    N3287    N        0.52805    0.29476    0.89484    1.000
    Si3288   Si       0.53940    0.31959    0.92596    1.000
    N3289    N        0.53149    0.35775    0.90115    1.000
    N3290    N        0.57664    0.32022    0.94677    1.000
    N3291    N        0.55268    0.38421    0.95342    1.000
    Si3292   Si       0.53426    0.43114    0.87099    1.000
    Si3293   Si       0.56129    0.42699    0.94784    1.000
    N3294    N        0.55135    0.44659    0.98546    1.000
    Si3295   Si       0.56236    0.48680    0.98257    1.000
    N3296    N        0.53072    0.42492    0.91530    1.000
    N3297    N        0.55032    0.55357    0.07147    1.000
    N3298    N        0.54008    0.59138    0.01233    1.000
    Si3299   Si       0.53408    0.52859    0.10153    1.000
    Si3300   Si       0.52063    0.57347    0.04874    1.000
    N3301    N        0.54690    0.64410    0.08533    1.000
    Si3302   Si       0.54780    0.72666    0.09718    1.000
    Si3303   Si       0.55468    0.67053    0.04916    1.000
    N3304    N        0.53704    0.71156    0.05738    1.000
    N3305    N        0.52326    0.66152    0.01802    1.000
    Si3306   Si       0.52219    0.74235    0.03094    1.000
    N3307    N        0.53532    0.54079    0.21197    1.000
    Si3308   Si       0.54351    0.58661    0.20676    1.000
    N3309    N        0.53833    0.55183    0.13920    1.000
    Si3310   Si       0.55399    0.51103    0.23885    1.000
    N3311    N        0.54250    0.61397    0.24061    1.000
    Si3312   Si       0.57034    0.64717    0.24497    1.000
    Si3313   Si       0.55152    0.71853    0.22025    1.000
    N3314    N        0.54678    0.68219    0.24585    1.000
    N3315    N        0.52000    0.73467    0.12980    1.000
    N3316    N        0.52537    0.74664    0.24111    1.000
    N3317    N        0.54419    0.69979    0.18008    1.000
    N3318    N        0.54371    0.54143    0.34364    1.000
    N3319    N        0.56069    0.60914    0.33790    1.000
    Si3320   Si       0.52801    0.58165    0.33631    1.000
    Si3321   Si       0.56295    0.52156    0.31061    1.000
    N3322    N        0.53621    0.52046    0.27695    1.000
    Si3323   Si       0.55613    0.64664    0.31757    1.000
    N3324    N        0.55623    0.67891    0.34682    1.000
    N3325    N        0.52257    0.71571    0.30393    1.000
    N3326    N        0.51771    0.64845    0.29459    1.000
    N3327    N        0.53188    0.53342    0.47879    1.000
    N3328    N        0.53879    0.52923    0.41389    1.000
    Si3329   Si       0.56554    0.53026    0.45056    1.000
    N3330    N        0.54602    0.60071    0.46802    1.000
    Si3331   Si       0.52447    0.57297    0.49200    1.000
    N3332    N        0.54857    0.62799    0.40779    1.000
    Si3333   Si       0.54785    0.51215    0.37527    1.000
    Si3334   Si       0.55859    0.63684    0.44926    1.000
    N3335    N        0.56609    0.70409    0.41007    1.000
    Si3336   Si       0.54916    0.69928    0.49508    1.000
    N3337    N        0.53594    0.66648    0.47146    1.000
    Si3338   Si       0.52163    0.71372    0.41261    1.000
    N3339    N        0.53713    0.75577    0.42624    1.000
    N3340    N        0.53856    0.57198    0.53291    1.000
    Si3341   Si       0.57062    0.54103    0.54378    1.000
    N3342    N        0.52168    0.59684    0.59813    1.000
    Si3343   Si       0.53013    0.67391    0.56562    1.000
    N3344    N        0.55195    0.66887    0.60190    1.000
    N3345    N        0.55762    0.69250    0.53649    1.000
    Si3346   Si       0.52986    0.51866    0.67624    1.000
    N3347    N        0.54451    0.54981    0.64819    1.000
    N3348    N        0.53810    0.62166    0.72304    1.000
    N3349    N        0.56376    0.68064    0.73134    1.000
    Si3350   Si       0.57046    0.75240    0.62614    1.000
    N3351    N        0.53559    0.72918    0.63098    1.000
    Si3352   Si       0.52742    0.68730    0.63454    1.000
    N3353    N        0.55013    0.66329    0.66428    1.000
    Si3354   Si       0.56473    0.64853    0.70168    1.000
    Si3355   Si       0.57299    0.64142    0.63019    1.000
    Si3356   Si       0.52068    0.68958    0.72849    1.000
    Si3357   Si       0.54917    0.57397    0.79453    1.000
    N3358    N        0.56877    0.59295    0.82909    1.000
    N3359    N        0.51962    0.60871    0.78554    1.000
    Si3360   Si       0.53941    0.63863    0.76355    1.000
    Si3361   Si       0.55846    0.73958    0.80103    1.000
    N3362    N        0.54260    0.65020    0.85270    1.000
    N3363    N        0.53229    0.71547    0.82545    1.000
    Si3364   Si       0.53075    0.69114    0.86334    1.000
    N3365    N        0.57564    0.64923    0.78821    1.000
    Si3366   Si       0.57695    0.63776    0.82985    1.000
    N3367    N        0.53390    0.76010    0.77289    1.000
    N3368    N        0.56086    0.60315    0.89562    1.000
    Si3369   Si       0.56179    0.60489    0.93965    1.000
    N3370    N        0.55388    0.56222    0.94642    1.000
    Si3371   Si       0.52140    0.53465    0.95312    1.000
    Si3372   Si       0.52496    0.61695    0.87541    1.000
    N3373    N        0.53325    0.63296    0.95685    1.000
    N3374    N        0.52967    0.51088    0.98711    1.000
    N3375    N        0.56853    0.53492    0.87111    1.000
    Si3376   Si       0.51779    0.62463    0.99637    1.000
    Si3377   Si       0.55901    0.69807    0.92017    1.000
    N3378    N        0.55714    0.72326    0.95393    1.000
    N3379    N        0.52023    0.68324    0.90769    1.000
    N3380    N        0.56810    0.70957    0.87929    1.000
    N3381    N        0.54388    0.82224    0.06031    1.000
    Si3382   Si       0.55768    0.80365    0.09804    1.000
    N3383    N        0.56668    0.76458    0.08466    1.000
    N3384    N        0.55792    0.76077    0.01449    1.000
    Si3385   Si       0.57320    0.83979    0.03508    1.000
    N3386    N        0.53065    0.87401    0.12366    1.000
    N3387    N        0.57581    0.94180    0.04649    1.000
    N3388    N        0.53877    0.94579    0.10986    1.000
    Si3389   Si       0.53298    0.94057    0.06645    1.000
    Si3390   Si       0.57263    0.94831    0.00198    1.000
    Si3391   Si       0.55419    0.98386    0.11881    1.000
    N3392    N        0.54388    0.77292    0.18758    1.000
    N3393    N        0.52937    0.80647    0.13021    1.000
    N3394    N        0.55217    0.84943    0.18866    1.000
    Si3395   Si       0.52627    0.84312    0.15388    1.000
    N3396    N        0.52290    0.90555    0.22727    1.000
    N3397    N        0.55729    0.92026    0.17272    1.000
    Si3398   Si       0.55478    0.89037    0.20279    1.000
    Si3399   Si       0.53049    0.91478    0.13864    1.000
    N3400    N        0.52326    0.97085    0.20013    1.000
    Si3401   Si       0.56433    0.96068    0.18574    1.000
    Si3402   Si       0.53829    0.86739    0.32220    1.000
    Si3403   Si       0.56466    0.79973    0.32090    1.000
    N3404    N        0.55274    0.79464    0.36254    1.000
    N3405    N        0.52819    0.79029    0.29883    1.000
    N3406    N        0.53610    0.86457    0.36630    1.000
    N3407    N        0.57452    0.84176    0.31970    1.000
    N3408    N        0.54938    0.91006    0.32296    1.000
    Si3409   Si       0.55149    0.99141    0.31139    1.000
    N3410    N        0.56243    0.99983    0.27054    1.000
    Si3411   Si       0.56109    0.83335    0.38160    1.000
    Si3412   Si       0.54452    0.79212    0.45012    1.000
    N3413    N        0.54682    0.82537    0.42239    1.000
    Si3414   Si       0.54071    0.86609    0.44069    1.000
    N3415    N        0.53723    0.86269    0.48493    1.000
    Si3416   Si       0.52490    0.77313    0.38681    1.000
    N3417    N        0.53173    0.98457    0.48909    1.000
    N3418    N        0.57825    0.88900    0.43324    1.000
    N3419    N        0.55449    0.95621    0.43691    1.000
    Si3420   Si       0.56528    0.99055    0.41122    1.000
    N3421    N        0.53022    0.00470    0.38931    1.000
    N3422    N        0.56351    0.92632    0.49586    1.000
    Si3423   Si       0.57978    0.92622    0.45465    1.000
    Si3424   Si       0.54219    0.85792    0.56990    1.000
    N3425    N        0.53182    0.82574    0.54444    1.000
    N3426    N        0.52942    0.79148    0.61400    1.000
    N3427    N        0.57284    0.84432    0.59941    1.000
    Si3428   Si       0.57672    0.77553    0.54930    1.000
    N3429    N        0.53453    0.76380    0.55030    1.000
    Si3430   Si       0.56887    0.88491    0.50845    1.000
    N3431    N        0.57037    0.88596    0.55202    1.000
    N3432    N        0.55425    0.98656    0.55242    1.000
    Si3433   Si       0.54466    0.95547    0.52201    1.000
    Si3434   Si       0.54355    0.98809    0.59660    1.000
    N3435    N        0.54210    0.94383    0.60218    1.000
    N3436    N        0.51678    0.86610    0.70836    1.000
    Si3437   Si       0.54150    0.76257    0.72899    1.000
    Si3438   Si       0.55979    0.81742    0.63186    1.000
    N3439    N        0.54418    0.84509    0.65877    1.000
    Si3440   Si       0.54850    0.83592    0.69978    1.000
    N3441    N        0.52938    0.80079    0.71611    1.000
    Si3442   Si       0.56957    0.93494    0.63501    1.000
    N3443    N        0.53828    0.91466    0.66019    1.000
    Si3444   Si       0.54046    0.94999    0.69039    1.000
    N3445    N        0.53595    0.94046    0.73242    1.000
    N3446    N        0.53605    0.84852    0.82087    1.000
    Si3447   Si       0.54261    0.86525    0.86132    1.000
    Si3448   Si       0.57270    0.86034    0.79767    1.000
    N3449    N        0.57920    0.76795    0.82719    1.000
    N3450    N        0.55442    0.88499    0.76657    1.000
    Si3451   Si       0.56022    0.98585    0.81303    1.000
    N3452    N        0.55574    0.90447    0.85188    1.000
    Si3453   Si       0.56481    0.92591    0.76121    1.000
    N3454    N        0.53012    0.97553    0.84194    1.000
    Si3455   Si       0.52743    0.93733    0.86537    1.000
    N3456    N        0.57351    0.94753    0.79782    1.000
    Si3457   Si       0.52021    0.80808    0.91392    1.000
    N3458    N        0.56811    0.84810    0.99342    1.000
    N3459    N        0.54466    0.79459    0.95136    1.000
    Si3460   Si       0.53612    0.83070    0.97307    1.000
    N3461    N        0.55199    0.83309    0.88996    1.000
    Si3462   Si       0.56808    0.76148    0.97042    1.000
    N3463    N        0.54781    0.95916    0.89794    1.000
    N3464    N        0.53661    0.94303    0.97951    1.000
    N3465    N        0.55418    0.88530    0.94040    1.000
    Si3466   Si       0.52220    0.00232    0.87733    1.000
    Si3467   Si       0.54903    0.92981    0.93492    1.000
    N3468    N        0.60539    0.11457    0.10601    1.000
    Si3469   Si       0.59228    0.03850    0.07163    1.000
    N3470    N        0.62117    0.11189    0.03492    1.000
    Si3471   Si       0.62924    0.12884    0.07422    1.000
    N3472    N        0.63337    0.04983    0.08616    1.000
    N3473    N        0.58087    0.05100    0.03113    1.000
    Si3474   Si       0.57653    0.09519    0.02299    1.000
    N3475    N        0.58549    0.22133    0.10374    1.000
    N3476    N        0.60527    0.22223    0.03074    1.000
    Si3477   Si       0.59200    0.20112    0.06475    1.000
    N3478    N        0.62301    0.17240    0.07327    1.000
    Si3479   Si       0.61666    0.25002    0.11378    1.000
    Si3480   Si       0.61630    0.07429    0.11962    1.000
    N3481    N        0.62074    0.06869    0.16059    1.000
    Si3482   Si       0.59314    0.07577    0.19571    1.000
    N3483    N        0.59546    0.12029    0.19838    1.000
    N3484    N        0.62635    0.05834    0.22154    1.000
    N3485    N        0.60137    0.17999    0.17549    1.000
    Si3486   Si       0.60840    0.22326    0.17791    1.000
    N3487    N        0.61867    0.22975    0.22212    1.000
    Si3488   Si       0.62817    0.15173    0.19526    1.000
    N3489    N        0.61662    0.11151    0.27693    1.000
    Si3490   Si       0.60938    0.07399    0.25875    1.000
    N3491    N        0.62656    0.08565    0.34286    1.000
    Si3492   Si       0.58943    0.13148    0.30690    1.000
    Si3493   Si       0.59571    0.09859    0.36951    1.000
    N3494    N        0.62938    0.04397    0.28305    1.000
    N3495    N        0.61440    0.15952    0.33143    1.000
    Si3496   Si       0.61929    0.19966    0.25463    1.000
    Si3497   Si       0.59003    0.25278    0.36465    1.000
    N3498    N        0.59461    0.25401    0.32103    1.000
    N3499    N        0.57809    0.20170    0.27226    1.000
    N3500    N        0.62521    0.06191    0.48884    1.000
    N3501    N        0.61794    0.12642    0.39453    1.000
    Si3502   Si       0.58297    0.07798    0.49071    1.000
    N3503    N        0.63212    0.13291    0.45407    1.000
    Si3504   Si       0.59421    0.12777    0.43509    1.000
    N3505    N        0.63380    0.24726    0.44891    1.000
    Si3506   Si       0.62889    0.16312    0.37186    1.000
    Si3507   Si       0.59418    0.25061    0.46307    1.000
    N3508    N        0.62167    0.19628    0.39963    1.000
    N3509    N        0.63232    0.25889    0.38031    1.000
    N3510    N        0.59553    0.04614    0.55224    1.000
    Si3511   Si       0.61582    0.11805    0.54743    1.000
    Si3512   Si       0.61931    0.02997    0.51922    1.000
    Si3513   Si       0.61503    0.06107    0.58802    1.000
    N3514    N        0.58360    0.11241    0.51621    1.000
    N3515    N        0.58605    0.08124    0.61444    1.000
    Si3516   Si       0.59433    0.12440    0.61567    1.000
    N3517    N        0.58930    0.13975    0.57566    1.000
    Si3518   Si       0.62235    0.21288    0.60340    1.000
    N3519    N        0.59760    0.21069    0.56732    1.000
    Si3520   Si       0.61059    0.23470    0.53408    1.000
    N3521    N        0.58228    0.23500    0.50178    1.000
    N3522    N        0.62263    0.01086    0.66393    1.000
    N3523    N        0.63053    0.13320    0.63864    1.000
    N3524    N        0.58775    0.01036    0.71623    1.000
    Si3525   Si       0.62993    0.16931    0.66025    1.000
    N3526    N        0.60271    0.19152    0.63397    1.000
    Si3527   Si       0.59474    0.17491    0.72861    1.000
    N3528    N        0.62414    0.16265    0.70137    1.000
    N3529    N        0.61506    0.05321    0.78509    1.000
    Si3530   Si       0.61177    0.09065    0.76444    1.000
    Si3531   Si       0.62247    0.01956    0.85894    1.000
    N3532    N        0.61341    0.12315    0.79490    1.000
    Si3533   Si       0.58036    0.11693    0.82535    1.000
    N3534    N        0.59192    0.11983    0.86912    1.000
    Si3535   Si       0.57805    0.04331    0.80573    1.000
    Si3536   Si       0.57609    0.21780    0.83534    1.000
    N3537    N        0.61405    0.18969    0.76554    1.000
    N3538    N        0.60702    0.24824    0.82549    1.000
    N3539    N        0.59574    0.18763    0.85940    1.000
    Si3540   Si       0.58778    0.22351    0.76204    1.000
    N3541    N        0.58628    0.11081    0.98457    1.000
    N3542    N        0.61411    0.06735    0.92181    1.000
    N3543    N        0.62650    0.02067    0.96129    1.000
    Si3544   Si       0.59659    0.02955    0.93047    1.000
    Si3545   Si       0.61936    0.09257    0.88765    1.000
    Si3546   Si       0.62837    0.11997    0.99323    1.000
    Si3547   Si       0.57868    0.15758    0.88666    1.000
    N3548    N        0.62190    0.21820    0.94944    1.000
    Si3549   Si       0.60017    0.22648    0.98793    1.000
    N3550    N        0.58699    0.16377    0.92988    1.000
    Si3551   Si       0.62606    0.17543    0.94380    1.000
    N3552    N        0.60440    0.28941    0.04552    1.000
    Si3553   Si       0.60408    0.32229    0.07809    1.000
    N3554    N        0.59771    0.35618    0.04498    1.000
    N3555    N        0.62757    0.34869    0.10644    1.000
    N3556    N        0.59843    0.28803    0.11182    1.000
    Si3557   Si       0.62668    0.38665    0.03806    1.000
    N3558    N        0.61504    0.41707    0.00769    1.000
    Si3559   Si       0.60599    0.43326    0.09411    1.000
    N3560    N        0.61482    0.47289    0.11140    1.000
    N3561    N        0.59194    0.48308    0.01455    1.000
    Si3562   Si       0.58000    0.44044    0.02224    1.000
    Si3563   Si       0.62495    0.37726    0.13710    1.000
    Si3564   Si       0.60692    0.26949    0.23678    1.000
    N3565    N        0.60346    0.35995    0.17302    1.000
    N3566    N        0.58916    0.29090    0.20327    1.000
    Si3567   Si       0.61648    0.37642    0.21218    1.000
    Si3568   Si       0.58352    0.48556    0.13992    1.000
    N3569    N        0.61259    0.46649    0.21018    1.000
    N3570    N        0.59402    0.40611    0.12525    1.000
    Si3571   Si       0.61607    0.28858    0.30429    1.000
    N3572    N        0.59387    0.32335    0.31977    1.000
    Si3573   Si       0.61564    0.34621    0.35099    1.000
    N3574    N        0.61799    0.36366    0.25428    1.000
    N3575    N        0.63026    0.29611    0.26195    1.000
    N3576    N        0.62754    0.38149    0.32543    1.000
    Si3577   Si       0.60748    0.38966    0.28661    1.000
    Si3578   Si       0.61744    0.46393    0.29994    1.000
    N3579    N        0.62105    0.43042    0.27376    1.000
    N3580    N        0.62910    0.45083    0.33866    1.000
    N3581    N        0.57949    0.48111    0.31317    1.000
    Si3582   Si       0.62443    0.48215    0.36865    1.000
    N3583    N        0.58728    0.35602    0.38214    1.000
    Si3584   Si       0.62175    0.31993    0.46780    1.000
    N3585    N        0.58631    0.29387    0.45959    1.000
    N3586    N        0.63086    0.35497    0.44459    1.000
    N3587    N        0.58435    0.49178    0.45533    1.000
    N3588    N        0.59239    0.42705    0.41439    1.000
    Si3589   Si       0.60888    0.48987    0.49201    1.000
    N3590    N        0.58394    0.48819    0.38530    1.000
    Si3591   Si       0.63556    0.42591    0.41541    1.000
    N3592    N        0.59615    0.30219    0.59612    1.000
    Si3593   Si       0.59646    0.30972    0.55120    1.000
    N3594    N        0.60482    0.32531    0.50887    1.000
    N3595    N        0.62769    0.27535    0.54276    1.000
    N3596    N        0.62262    0.35940    0.60965    1.000
    Si3597   Si       0.63070    0.31849    0.61810    1.000
    Si3598   Si       0.58233    0.36317    0.51760    1.000
    Si3599   Si       0.57953    0.35663    0.60189    1.000
    Si3600   Si       0.62670    0.42795    0.53349    1.000
    N3601    N        0.59902    0.46111    0.52287    1.000
    Si3602   Si       0.59682    0.42825    0.60615    1.000
    N3603    N        0.62655    0.41503    0.57495    1.000
    N3604    N        0.61265    0.39383    0.50845    1.000
    Si3605   Si       0.60557    0.28638    0.68277    1.000
    N3606    N        0.62440    0.31688    0.66083    1.000
    N3607    N        0.58483    0.30932    0.71734    1.000
    N3608    N        0.58001    0.37757    0.67824    1.000
    N3609    N        0.63658    0.33778    0.74618    1.000
    Si3610   Si       0.61248    0.41072    0.68255    1.000
    N3611    N        0.59612    0.43796    0.70993    1.000
    N3612    N        0.61834    0.42879    0.64222    1.000
    N3613    N        0.62932    0.49836    0.69962    1.000
    Si3614   Si       0.61641    0.47034    0.72993    1.000
    N3615    N        0.60150    0.31756    0.79120    1.000
    Si3616   Si       0.60277    0.33621    0.83094    1.000
    N3617    N        0.61388    0.37468    0.81590    1.000
    Si3618   Si       0.60897    0.35861    0.77477    1.000
    N3619    N        0.61970    0.30558    0.85539    1.000
    Si3620   Si       0.58409    0.27845    0.80486    1.000
    N3621    N        0.58329    0.26602    0.76245    1.000
    Si3622   Si       0.61711    0.29950    0.75345    1.000
    N3623    N        0.57605    0.37439    0.75151    1.000
    Si3624   Si       0.59294    0.41318    0.82707    1.000
    N3625    N        0.58558    0.48657    0.75557    1.000
    N3626    N        0.63132    0.43369    0.82873    1.000
    N3627    N        0.58349    0.50087    0.81509    1.000
    N3628    N        0.59655    0.35566    0.89778    1.000
    Si3629   Si       0.60878    0.29482    0.95821    1.000
    Si3630   Si       0.59036    0.36264    0.94118    1.000
    N3631    N        0.62674    0.37284    0.96073    1.000
    N3632    N        0.58707    0.26869    0.98465    1.000
    N3633    N        0.62594    0.28883    0.91911    1.000
    Si3634   Si       0.62681    0.32578    0.89383    1.000
    Si3635   Si       0.61119    0.47540    0.92195    1.000
    N3636    N        0.60750    0.47638    0.87788    1.000
    N3637    N        0.60363    0.43531    0.94201    1.000
    Si3638   Si       0.63118    0.41606    0.96864    1.000
    N3639    N        0.58551    0.49977    0.94780    1.000
    N3640    N        0.61683    0.52939    0.06277    1.000
    N3641    N        0.59901    0.59554    0.04597    1.000
    Si3642   Si       0.59326    0.56410    0.07419    1.000
    Si3643   Si       0.61779    0.51790    0.02165    1.000
    Si3644   Si       0.58420    0.58904    0.00624    1.000
    N3645    N        0.60158    0.57306    0.11623    1.000
    N3646    N        0.59445    0.54785    0.99943    1.000
    N3647    N        0.62203    0.63415    0.09693    1.000
    Si3648   Si       0.62076    0.63214    0.05358    1.000
    N3649    N        0.59794    0.66936    0.04529    1.000
    N3650    N        0.61904    0.74209    0.03572    1.000
    Si3651   Si       0.62823    0.70341    0.04996    1.000
    Si3652   Si       0.58354    0.65530    0.10612    1.000
    Si3653   Si       0.63953    0.75500    0.00065    1.000
    N3654    N        0.57687    0.69799    0.11394    1.000
    Si3655   Si       0.63632    0.59954    0.11905    1.000
    Si3656   Si       0.60471    0.62540    0.18057    1.000
    N3657    N        0.59647    0.51925    0.16426    1.000
    N3658    N        0.59561    0.52603    0.23924    1.000
    Si3659   Si       0.57918    0.55940    0.15194    1.000
    N3660    N        0.58161    0.58825    0.18495    1.000
    Si3661   Si       0.61430    0.50895    0.20202    1.000
    Si3662   Si       0.61960    0.69604    0.21539    1.000
    N3663    N        0.58249    0.64786    0.15004    1.000
    N3664    N        0.62035    0.70006    0.16756    1.000
    N3665    N        0.60100    0.65430    0.21360    1.000
    N3666    N        0.59150    0.73249    0.21886    1.000
    Si3667   Si       0.57953    0.68978    0.15732    1.000
    N3668    N        0.59967    0.54525    0.30756    1.000
    Si3669   Si       0.62208    0.53211    0.27413    1.000
    Si3670   Si       0.61807    0.55704    0.34486    1.000
    N3671    N        0.61351    0.71412    0.35848    1.000
    Si3672   Si       0.62851    0.65750    0.28628    1.000
    N3673    N        0.58504    0.64446    0.28555    1.000
    N3674    N        0.63026    0.69008    0.25843    1.000
    N3675    N        0.60223    0.57232    0.38325    1.000
    N3676    N        0.59967    0.55883    0.45405    1.000
    Si3677   Si       0.62548    0.56388    0.42008    1.000
    Si3678   Si       0.62043    0.56239    0.49325    1.000
    Si3679   Si       0.57682    0.60981    0.37966    1.000
    Si3680   Si       0.62836    0.63911    0.42110    1.000
    N3681    N        0.60167    0.64569    0.45358    1.000
    N3682    N        0.58625    0.71230    0.47381    1.000
    N3683    N        0.62334    0.74018    0.42238    1.000
    Si3684   Si       0.61268    0.67843    0.48015    1.000
    N3685    N        0.60866    0.64249    0.38087    1.000
    Si3686   Si       0.58867    0.68401    0.37721    1.000
    Si3687   Si       0.57984    0.73811    0.43762    1.000
    N3688    N        0.60141    0.52937    0.51326    1.000
    N3689    N        0.61977    0.59058    0.52781    1.000
    Si3690   Si       0.62631    0.57389    0.56845    1.000
    N3691    N        0.58754    0.55758    0.57937    1.000
    Si3692   Si       0.63336    0.63039    0.54123    1.000
    Si3693   Si       0.62831    0.75281    0.57702    1.000
    Si3694   Si       0.59898    0.69972    0.54685    1.000
    N3695    N        0.61444    0.66603    0.52346    1.000
    N3696    N        0.60415    0.74402    0.53400    1.000
    N3697    N        0.62272    0.70882    0.58273    1.000
    Si3698   Si       0.57773    0.55675    0.62173    1.000
    Si3699   Si       0.59794    0.52132    0.68033    1.000
    Si3700   Si       0.60835    0.59534    0.67331    1.000
    N3701    N        0.60224    0.56040    0.70072    1.000
    N3702    N        0.60865    0.53172    0.64008    1.000
    N3703    N        0.58285    0.59889    0.63721    1.000
    Si3704   Si       0.61482    0.56438    0.74253    1.000
    N3705    N        0.60206    0.62930    0.69837    1.000
    N3706    N        0.58255    0.75792    0.71445    1.000
    N3707    N        0.61249    0.65649    0.63147    1.000
    N3708    N        0.59955    0.72719    0.64660    1.000
    Si3709   Si       0.62269    0.69822    0.62620    1.000
    Si3710   Si       0.59934    0.52008    0.78131    1.000
    Si3711   Si       0.58017    0.57462    0.86849    1.000
    N3712    N        0.63684    0.53174    0.76170    1.000
    N3713    N        0.62340    0.58351    0.86520    1.000
    N3714    N        0.58200    0.55801    0.77190    1.000
    N3715    N        0.59451    0.71794    0.79041    1.000
    Si3716   Si       0.59221    0.68242    0.76567    1.000
    N3717    N        0.60899    0.65043    0.85604    1.000
    N3718    N        0.62420    0.72480    0.85543    1.000
    Si3719   Si       0.63068    0.73354    0.81041    1.000
    Si3720   Si       0.58674    0.74603    0.86471    1.000
    N3721    N        0.63073    0.67265    0.74936    1.000
    N3722    N        0.63224    0.55106    0.94359    1.000
    Si3723   Si       0.59073    0.54202    0.95484    1.000
    N3724    N        0.59811    0.60648    0.96884    1.000
    Si3725   Si       0.63580    0.62184    0.87545    1.000
    Si3726   Si       0.61115    0.68605    0.87902    1.000
    N3727    N        0.59805    0.67688    0.92177    1.000
    N3728    N        0.60206    0.80632    0.03525    1.000
    N3729    N        0.59089    0.87225    0.05789    1.000
    Si3730   Si       0.61784    0.85438    0.08869    1.000
    N3731    N        0.59786    0.82201    0.11104    1.000
    Si3732   Si       0.58737    0.76741    0.04567    1.000
    Si3733   Si       0.60350    0.90934    0.03794    1.000
    Si3734   Si       0.60457    0.96829    0.06851    1.000
    N3735    N        0.62637    0.95425    0.10345    1.000
    N3736    N        0.63131    0.98735    0.04064    1.000
    N3737    N        0.58166    0.98884    0.99878    1.000
    N3738    N        0.57725    0.99951    0.08570    1.000
    Si3739   Si       0.62870    0.99639    0.99711    1.000
    Si3740   Si       0.62114    0.80775    0.14563    1.000
    Si3741   Si       0.58415    0.77398    0.20390    1.000
    N3742    N        0.59506    0.80872    0.22916    1.000
    N3743    N        0.62049    0.84239    0.17128    1.000
    N3744    N        0.61303    0.77562    0.17151    1.000
    Si3745   Si       0.59365    0.84359    0.20360    1.000
    N3746    N        0.59492    0.88477    0.21729    1.000
    Si3747   Si       0.62389    0.97686    0.14057    1.000
    N3748    N        0.58207    0.97986    0.15130    1.000
    N3749    N        0.59230    0.96340    0.21963    1.000
    Si3750   Si       0.61546    0.81553    0.26624    1.000
    Si3751   Si       0.61469    0.85947    0.31409    1.000
    N3752    N        0.60164    0.78844    0.29741    1.000
    N3753    N        0.61907    0.85886    0.27216    1.000
    N3754    N        0.64296    0.77578    0.36013    1.000
    N3755    N        0.61580    0.89625    0.33530    1.000
    Si3756   Si       0.59199    0.96754    0.26116    1.000
    N3757    N        0.59416    0.92443    0.27506    1.000
    Si3758   Si       0.60317    0.00029    0.34842    1.000
    N3759    N        0.58594    0.96776    0.32264    1.000
    Si3760   Si       0.58865    0.92579    0.31697    1.000
    Si3761   Si       0.61834    0.89827    0.25028    1.000
    N3762    N        0.63475    0.97963    0.26758    1.000
    N3763    N        0.60509    0.84020    0.38567    1.000
    Si3764   Si       0.61422    0.87644    0.41028    1.000
    N3765    N        0.58311    0.77797    0.46233    1.000
    N3766    N        0.60171    0.98235    0.38736    1.000
    Si3767   Si       0.63587    0.96784    0.47461    1.000
    N3768    N        0.62784    0.91603    0.39537    1.000
    N3769    N        0.62057    0.93015    0.46665    1.000
    Si3770   Si       0.63775    0.95823    0.39919    1.000
    N3771    N        0.59836    0.80488    0.52501    1.000
    Si3772   Si       0.62666    0.83976    0.52430    1.000
    N3773    N        0.63020    0.85846    0.56469    1.000
    N3774    N        0.59031    0.76741    0.58953    1.000
    Si3775   Si       0.59839    0.87837    0.58497    1.000
    N3776    N        0.60815    0.86939    0.49870    1.000
    Si3777   Si       0.60690    0.77148    0.49784    1.000
    N3778    N        0.59936    0.90940    0.61664    1.000
    N3779    N        0.57832    0.99291    0.62161    1.000
    N3780    N        0.60871    0.99483    0.49450    1.000
    N3781    N        0.57896    0.78655    0.65516    1.000
    N3782    N        0.58985    0.84326    0.70985    1.000
    Si3783   Si       0.62573    0.86636    0.69739    1.000
    N3784    N        0.63506    0.86748    0.74342    1.000
    Si3785   Si       0.61262    0.82812    0.74346    1.000
    Si3786   Si       0.60445    0.75831    0.67792    1.000
    Si3787   Si       0.62212    0.99472    0.62303    1.000
    Si3788   Si       0.61331    0.93725    0.69912    1.000
    N3789    N        0.58187    0.95781    0.67549    1.000
    Si3790   Si       0.58048    0.00289    0.66914    1.000
    N3791    N        0.60489    0.93081    0.74072    1.000
    Si3792   Si       0.63257    0.00287    0.71513    1.000
    N3793    N        0.62722    0.90377    0.67628    1.000
    N3794    N        0.60988    0.82583    0.84955    1.000
    Si3795   Si       0.60639    0.79862    0.81378    1.000
    N3796    N        0.59320    0.82393    0.78085    1.000
    Si3797   Si       0.63256    0.86108    0.84011    1.000
    N3798    N        0.59056    0.01138    0.83019    1.000
    N3799    N        0.60608    0.88704    0.81195    1.000
    Si3800   Si       0.58873    0.92311    0.83127    1.000
    N3801    N        0.61191    0.94120    0.86390    1.000
    Si3802   Si       0.63951    0.95147    0.75503    1.000
    N3803    N        0.59250    0.77378    0.89727    1.000
    N3804    N        0.62321    0.82278    0.91641    1.000
    Si3805   Si       0.59025    0.81630    0.88638    1.000
    Si3806   Si       0.62353    0.78102    0.92787    1.000
    N3807    N        0.61011    0.77065    0.96839    1.000
    Si3808   Si       0.58545    0.87792    0.96784    1.000
    N3809    N        0.59583    0.91258    0.99575    1.000
    N3810    N        0.62885    0.88351    0.95089    1.000
    N3811    N        0.59244    0.94274    0.93470    1.000
    Si3812   Si       0.59082    0.96200    0.89482    1.000
    Si3813   Si       0.63072    0.92888    0.95249    1.000
    N3814    N        0.60654    0.00332    0.89516    1.000
    Si3815   Si       0.66650    0.02983    0.10867    1.000
    N3816    N        0.67299    0.12015    0.08225    1.000
    N3817    N        0.67026    0.01648    0.00697    1.000
    N3818    N        0.69342    0.13053    0.01356    1.000
    Si3819   Si       0.67375    0.16777    0.00778    1.000
    N3820    N        0.67593    0.19569    0.04171    1.000
    Si3821   Si       0.65796    0.19908    0.08037    1.000
    N3822    N        0.64630    0.24028    0.08372    1.000
    N3823    N        0.68600    0.18221    0.11025    1.000
    N3824    N        0.66425    0.25585    0.01342    1.000
    Si3825   Si       0.69520    0.22476    0.01580    1.000
    N3826    N        0.64770    0.01385    0.14206    1.000
    Si3827   Si       0.64703    0.03787    0.18188    1.000
    N3828    N        0.68857    0.05665    0.19070    1.000
    N3829    N        0.66329    0.13532    0.18089    1.000
    N3830    N        0.63571    0.16287    0.23615    1.000
    N3831    N        0.63866    0.24362    0.15185    1.000
    Si3832   Si       0.64696    0.05413    0.32167    1.000
    N3833    N        0.68871    0.06852    0.31165    1.000
    N3834    N        0.64344    0.01654    0.34385    1.000
    N3835    N        0.68222    0.10301    0.25255    1.000
    Si3836   Si       0.65058    0.02063    0.24907    1.000
    N3837    N        0.69187    0.03438    0.25690    1.000
    Si3838   Si       0.65255    0.13148    0.26135    1.000
    N3839    N        0.67461    0.14486    0.29672    1.000
    N3840    N        0.64876    0.20958    0.28718    1.000
    N3841    N        0.66870    0.17934    0.35580    1.000
    Si3842   Si       0.65231    0.17599    0.31577    1.000
    Si3843   Si       0.69002    0.22188    0.28066    1.000
    N3844    N        0.69424    0.01737    0.39690    1.000
    N3845    N        0.68359    0.10223    0.48381    1.000
    Si3846   Si       0.65502    0.12227    0.41890    1.000
    N3847    N        0.66698    0.07988    0.42324    1.000
    Si3848   Si       0.66153    0.06876    0.46612    1.000
    N3849    N        0.68042    0.02826    0.47083    1.000
    N3850    N        0.68292    0.17674    0.47374    1.000
    Si3851   Si       0.64432    0.23041    0.41069    1.000
    Si3852   Si       0.65940    0.14253    0.48507    1.000
    N3853    N        0.68985    0.14736    0.41441    1.000
    N3854    N        0.68599    0.22194    0.42117    1.000
    N3855    N        0.68882    0.25117    0.49682    1.000
    Si3856   Si       0.67753    0.02428    0.57736    1.000
    N3857    N        0.65965    0.02366    0.53617    1.000
    N3858    N        0.64137    0.02902    0.60167    1.000
    N3859    N        0.69007    0.13161    0.61048    1.000
    N3860    N        0.63879    0.09628    0.58023    1.000
    N3861    N        0.64568    0.21135    0.52273    1.000
    N3862    N        0.65710    0.18638    0.58983    1.000
    Si3863   Si       0.68423    0.20861    0.50386    1.000
    Si3864   Si       0.65995    0.17698    0.54635    1.000
    N3865    N        0.64615    0.14250    0.52646    1.000
    N3866    N        0.68681    0.25116    0.56880    1.000
    Si3867   Si       0.68663    0.17268    0.61957    1.000
    N3868    N        0.63981    0.24773    0.62064    1.000
    Si3869   Si       0.65669    0.10399    0.62090    1.000
    N3870    N        0.64277    0.09951    0.73609    1.000
    Si3871   Si       0.67311    0.06727    0.73466    1.000
    N3872    N        0.65911    0.03536    0.70879    1.000
    Si3873   Si       0.66230    0.03525    0.66486    1.000
    N3874    N        0.67097    0.07831    0.65493    1.000
    Si3875   Si       0.67292    0.25759    0.71984    1.000
    N3876    N        0.64000    0.25846    0.68979    1.000
    Si3877   Si       0.65888    0.23671    0.65705    1.000
    N3878    N        0.68691    0.14314    0.69295    1.000
    Si3879   Si       0.65648    0.14034    0.72295    1.000
    N3880    N        0.68649    0.21457    0.71519    1.000
    N3881    N        0.66856    0.19148    0.65429    1.000
    N3882    N        0.67900    0.05243    0.77563    1.000
    Si3883   Si       0.64732    0.02377    0.79036    1.000
    Si3884   Si       0.67484    0.07862    0.86020    1.000
    N3885    N        0.69047    0.10151    0.82608    1.000
    N3886    N        0.63473    0.06169    0.85955    1.000
    N3887    N        0.67000    0.16118    0.75872    1.000
    N3888    N        0.65487    0.18107    0.82816    1.000
    Si3889   Si       0.63793    0.19483    0.86751    1.000
    Si3890   Si       0.63634    0.16304    0.79136    1.000
    N3891    N        0.65709    0.09118    0.97513    1.000
    Si3892   Si       0.64911    0.05746    0.94919    1.000
    N3893    N        0.68866    0.04391    0.94286    1.000
    N3894    N        0.66225    0.10526    0.89177    1.000
    N3895    N        0.65001    0.17189    0.90479    1.000
    Si3896   Si       0.67985    0.14206    0.90514    1.000
    N3897    N        0.64164    0.23510    0.88011    1.000
    N3898    N        0.63724    0.15998    0.98385    1.000
    Si3899   Si       0.64215    0.24778    0.92059    1.000
    N3900    N        0.67693    0.25932    0.94500    1.000
    N3901    N        0.66034    0.36425    0.02267    1.000
    Si3902   Si       0.66923    0.33272    0.10167    1.000
    N3903    N        0.66151    0.30349    0.07021    1.000
    N3904    N        0.69237    0.36646    0.08627    1.000
    Si3905   Si       0.64398    0.26912    0.04978    1.000
    N3906    N        0.65823    0.47644    0.05317    1.000
    Si3907   Si       0.67295    0.43768    0.06489    1.000
    Si3908   Si       0.68345    0.50005    0.02590    1.000
    Si3909   Si       0.63937    0.50009    0.08727    1.000
    N3910    N        0.63712    0.41475    0.07003    1.000
    N3911    N        0.67774    0.50826    0.11010    1.000
    Si3912   Si       0.68498    0.32316    0.17917    1.000
    N3913    N        0.65541    0.33747    0.20705    1.000
    Si3914   Si       0.67510    0.27011    0.14885    1.000
    N3915    N        0.67458    0.31388    0.13994    1.000
    N3916    N        0.68769    0.28007    0.18981    1.000
    Si3917   Si       0.68759    0.48731    0.19842    1.000
    Si3918   Si       0.67549    0.41861    0.17708    1.000
    N3919    N        0.66523    0.39203    0.14400    1.000
    N3920    N        0.68115    0.45994    0.16305    1.000
    N3921    N        0.64330    0.41092    0.20484    1.000
    N3922    N        0.68080    0.45776    0.23225    1.000
    Si3923   Si       0.63845    0.44260    0.23373    1.000
    N3924    N        0.65648    0.28423    0.31925    1.000
    Si3925   Si       0.66099    0.28714    0.36286    1.000
    N3926    N        0.68443    0.33382    0.27396    1.000
    Si3927   Si       0.68402    0.29300    0.28658    1.000
    Si3928   Si       0.64969    0.33260    0.24885    1.000
    N3929    N        0.69056    0.26005    0.25843    1.000
    Si3930   Si       0.64814    0.41175    0.34794    1.000
    Si3931   Si       0.68434    0.48700    0.26754    1.000
    N3932    N        0.64340    0.49446    0.28066    1.000
    N3933    N        0.68900    0.42674    0.34209    1.000
    N3934    N        0.64495    0.32460    0.37264    1.000
    N3935    N        0.66173    0.30467    0.47620    1.000
    Si3936   Si       0.65328    0.35318    0.40573    1.000
    Si3937   Si       0.67398    0.26697    0.45922    1.000
    Si3938   Si       0.68990    0.32938    0.49618    1.000
    N3939    N        0.69546    0.35354    0.41761    1.000
    Si3940   Si       0.69013    0.45362    0.37700    1.000
    N3941    N        0.65438    0.42235    0.45499    1.000
    N3942    N        0.64715    0.39258    0.38672    1.000
    N3943    N        0.65101    0.46004    0.39517    1.000
    Si3944   Si       0.64057    0.38578    0.47592    1.000
    N3945    N        0.65029    0.48783    0.47946    1.000
    Si3946   Si       0.67551    0.45075    0.48110    1.000
    N3947    N        0.66877    0.31214    0.59868    1.000
    N3948    N        0.68272    0.37421    0.56255    1.000
    Si3949   Si       0.67132    0.27176    0.53236    1.000
    Si3950   Si       0.67536    0.26937    0.60738    1.000
    N3951    N        0.67784    0.37032    0.49703    1.000
    N3952    N        0.69210    0.30976    0.53284    1.000
    Si3953   Si       0.65295    0.38591    0.59392    1.000
    N3954    N        0.66856    0.43282    0.52039    1.000
    N3955    N        0.66188    0.47957    0.61067    1.000
    Si3956   Si       0.69093    0.39771    0.52807    1.000
    N3957    N        0.67718    0.40670    0.62017    1.000
    Si3958   Si       0.65979    0.37148    0.73337    1.000
    Si3959   Si       0.68661    0.42048    0.69203    1.000
    N3960    N        0.67218    0.45662    0.67197    1.000
    Si3961   Si       0.67090    0.49640    0.68783    1.000
    Si3962   Si       0.65645    0.44309    0.63459    1.000
    N3963    N        0.64995    0.39704    0.69944    1.000
    N3964    N        0.67431    0.27157    0.83112    1.000
    Si3965   Si       0.68195    0.26802    0.78607    1.000
    N3966    N        0.65250    0.27283    0.75532    1.000
    Si3967   Si       0.63706    0.26593    0.84905    1.000
    N3968    N        0.68452    0.39010    0.83930    1.000
    Si3969   Si       0.65091    0.39766    0.81422    1.000
    N3970    N        0.67534    0.48118    0.84662    1.000
    Si3971   Si       0.67719    0.43237    0.76133    1.000
    N3972    N        0.65937    0.39431    0.77153    1.000
    Si3973   Si       0.64510    0.45842    0.86250    1.000
    N3974    N        0.65132    0.46576    0.75335    1.000
    Si3975   Si       0.67094    0.50473    0.75636    1.000
    N3976    N        0.69825    0.51079    0.79066    1.000
    N3977    N        0.64522    0.31010    0.97850    1.000
    Si3978   Si       0.65830    0.35116    0.98117    1.000
    N3979    N        0.66229    0.35094    0.89385    1.000
    Si3980   Si       0.67489    0.28112    0.98093    1.000
    N3981    N        0.67267    0.43092    0.96337    1.000
    N3982    N        0.66249    0.42980    0.89223    1.000
    N3983    N        0.65228    0.48474    0.92964    1.000
    Si3984   Si       0.68106    0.45108    0.92568    1.000
    Si3985   Si       0.67612    0.39072    0.88263    1.000
    N3986    N        0.66974    0.58133    0.09777    1.000
    N3987    N        0.66086    0.61933    0.03795    1.000
    Si3988   Si       0.67048    0.63209    0.99787    1.000
    Si3989   Si       0.69017    0.61027    0.07000    1.000
    Si3990   Si       0.69403    0.54668    0.09394    1.000
    N3991    N        0.65233    0.51160    0.99741    1.000
    N3992    N        0.66629    0.68993    0.03361    1.000
    N3993    N        0.64822    0.70158    0.09050    1.000
    Si3994   Si       0.68703    0.68572    0.07063    1.000
    Si3995   Si       0.67741    0.61415    0.18205    1.000
    N3996    N        0.65479    0.51856    0.20464    1.000
    Si3997   Si       0.67300    0.54959    0.22998    1.000
    N3998    N        0.64132    0.61036    0.16075    1.000
    N3999    N        0.69201    0.58126    0.20748    1.000
    Si4000   Si       0.64665    0.74927    0.18241    1.000
    Si4001   Si       0.65034    0.70616    0.13386    1.000
    N4002    N        0.67698    0.65033    0.20844    1.000
    N4003    N        0.66811    0.74486    0.14439    1.000
    N4004    N        0.65907    0.71824    0.21065    1.000
    N4005    N        0.68164    0.68099    0.14802    1.000
    Si4006   Si       0.68761    0.69007    0.19015    1.000
    N4007    N        0.65621    0.56015    0.26821    1.000
    Si4008   Si       0.66510    0.59186    0.29621    1.000
    N4009    N        0.65436    0.62704    0.27188    1.000
    N4010    N        0.63846    0.59374    0.33203    1.000
    N4011    N        0.63936    0.52005    0.35717    1.000
    Si4012   Si       0.64221    0.63108    0.35423    1.000
    N4013    N        0.68209    0.63370    0.37121    1.000
    Si4014   Si       0.66759    0.71992    0.26068    1.000
    N4015    N        0.65369    0.73775    0.30107    1.000
    Si4016   Si       0.64791    0.70775    0.33216    1.000
    N4017    N        0.67786    0.71281    0.36669    1.000
    Si4018   Si       0.68507    0.64879    0.25110    1.000
    N4019    N        0.64457    0.66533    0.32625    1.000
    N4020    N        0.65619    0.53301    0.42259    1.000
    Si4021   Si       0.67388    0.52724    0.38250    1.000
    Si4022   Si       0.67176    0.52280    0.46177    1.000
    N4023    N        0.65054    0.60150    0.42054    1.000
    N4024    N        0.66400    0.56106    0.48633    1.000
    Si4025   Si       0.68826    0.60310    0.40096    1.000
    N4026    N        0.69423    0.56469    0.37822    1.000
    Si4027   Si       0.65054    0.73265    0.45544    1.000
    Si4028   Si       0.64290    0.73789    0.38187    1.000
    Si4029   Si       0.68954    0.68668    0.44310    1.000
    Si4030   Si       0.68400    0.67377    0.38256    1.000
    N4031    N        0.65723    0.67064    0.41687    1.000
    N4032    N        0.68975    0.73085    0.43654    1.000
    N4033    N        0.65355    0.69507    0.47826    1.000
    N4034    N        0.65740    0.54747    0.58650    1.000
    Si4035   Si       0.64800    0.52106    0.62084    1.000
    Si4036   Si       0.64448    0.62856    0.62101    1.000
    N4037    N        0.63280    0.61531    0.58210    1.000
    N4038    N        0.67205    0.63642    0.52474    1.000
    Si4039   Si       0.67342    0.74621    0.52096    1.000
    Si4040   Si       0.67972    0.67481    0.50692    1.000
    N4041    N        0.68845    0.70675    0.53405    1.000
    N4042    N        0.67680    0.52725    0.65672    1.000
    N4043    N        0.64576    0.59744    0.65196    1.000
    N4044    N        0.69399    0.51071    0.72107    1.000
    N4045    N        0.63942    0.59839    0.74410    1.000
    N4046    N        0.68502    0.64589    0.61937    1.000
    Si4047   Si       0.66991    0.74577    0.64765    1.000
    N4048    N        0.66339    0.70392    0.64468    1.000
    N4049    N        0.67383    0.64621    0.70223    1.000
    Si4050   Si       0.63733    0.63654    0.72521    1.000
    N4051    N        0.67092    0.57766    0.81027    1.000
    Si4052   Si       0.66608    0.57720    0.85324    1.000
    Si4053   Si       0.67355    0.59859    0.77043    1.000
    N4054    N        0.67610    0.62276    0.85961    1.000
    N4055    N        0.67676    0.63946    0.78298    1.000
    Si4056   Si       0.66916    0.67863    0.76649    1.000
    N4057    N        0.66478    0.70993    0.79645    1.000
    N4058    N        0.68863    0.74481    0.85462    1.000
    N4059    N        0.69027    0.55921    0.88044    1.000
    N4060    N        0.67240    0.59607    0.97342    1.000
    Si4061   Si       0.66014    0.52190    0.95542    1.000
    N4062    N        0.64123    0.62339    0.91702    1.000
    Si4063   Si       0.63625    0.59417    0.94790    1.000
    Si4064   Si       0.68890    0.65904    0.87958    1.000
    Si4065   Si       0.68434    0.69087    0.99170    1.000
    N4066    N        0.65542    0.68609    0.89418    1.000
    N4067    N        0.66591    0.73014    0.97774    1.000
    Si4068   Si       0.68819    0.74518    0.94344    1.000
    N4069    N        0.65536    0.66237    0.97015    1.000
    Si4070   Si       0.65808    0.72841    0.88163    1.000
    Si4071   Si       0.63828    0.66364    0.93117    1.000
    Si4072   Si       0.68114    0.81289    0.09577    1.000
    N4073    N        0.65201    0.83285    0.07041    1.000
    N4074    N        0.66489    0.78763    0.01347    1.000
    N4075    N        0.65658    0.85614    0.01036    1.000
    Si4076   Si       0.64172    0.81983    0.03102    1.000
    N4077    N        0.69231    0.77424    0.08478    1.000
    N4078    N        0.64042    0.88106    0.11570    1.000
    Si4079   Si       0.67362    0.89162    0.02921    1.000
    Si4080   Si       0.67368    0.99196    0.04108    1.000
    Si4081   Si       0.65209    0.92058    0.09483    1.000
    N4082    N        0.64383    0.91244    0.05264    1.000
    N4083    N        0.68765    0.93110    0.11675    1.000
    N4084    N        0.68997    0.00974    0.07669    1.000
    Si4085   Si       0.68819    0.78365    0.15476    1.000
    N4086    N        0.67665    0.78059    0.19629    1.000
    N4087    N        0.66363    0.81410    0.13514    1.000
    Si4088   Si       0.65345    0.85709    0.14916    1.000
    Si4089   Si       0.68637    0.78987    0.23660    1.000
    N4090    N        0.68029    0.88385    0.16944    1.000
    Si4091   Si       0.67455    0.92669    0.15786    1.000
    N4092    N        0.65016    0.00239    0.20885    1.000
    N4093    N        0.64101    0.94862    0.16921    1.000
    N4094    N        0.64830    0.92556    0.23726    1.000
    Si4095   Si       0.63620    0.96082    0.21087    1.000
    N4096    N        0.65831    0.80259    0.26696    1.000
    Si4097   Si       0.67878    0.82649    0.29831    1.000
    N4098    N        0.64424    0.83069    0.32646    1.000
    Si4099   Si       0.64422    0.78012    0.31414    1.000
    N4100    N        0.69419    0.79153    0.32034    1.000
    Si4101   Si       0.63862    0.81880    0.36939    1.000
    Si4102   Si       0.68122    0.99877    0.35855    1.000
    N4103    N        0.66665    0.92585    0.30820    1.000
    Si4104   Si       0.66282    0.94741    0.27096    1.000
    Si4105   Si       0.65256    0.91697    0.35457    1.000
    N4106    N        0.66702    0.95872    0.36819    1.000
    N4107    N        0.68931    0.89104    0.35881    1.000
    N4108    N        0.67899    0.82626    0.38656    1.000
    Si4109   Si       0.68152    0.83942    0.42835    1.000
    Si4110   Si       0.67953    0.79521    0.48700    1.000
    N4111    N        0.64548    0.86313    0.43868    1.000
    N4112    N        0.64976    0.76349    0.48678    1.000
    N4113    N        0.69118    0.80167    0.44510    1.000
    N4114    N        0.65448    0.97609    0.43478    1.000
    Si4115   Si       0.63799    0.89089    0.47314    1.000
    Si4116   Si       0.68955    0.00099    0.43766    1.000
    N4117    N        0.67395    0.96656    0.49848    1.000
    Si4118   Si       0.66976    0.86107    0.58197    1.000
    N4119    N        0.67768    0.82463    0.60452    1.000
    Si4120   Si       0.68290    0.78473    0.58971    1.000
    N4121    N        0.66532    0.83001    0.50798    1.000
    N4122    N        0.65995    0.77286    0.55225    1.000
    N4123    N        0.65331    0.76114    0.61047    1.000
    Si4124   Si       0.68636    0.00692    0.50633    1.000
    N4125    N        0.67292    0.89809    0.49801    1.000
    N4126    N        0.64470    0.95833    0.62146    1.000
    N4127    N        0.64470    0.80215    0.73571    1.000
    N4128    N        0.64996    0.83658    0.67435    1.000
    Si4129   Si       0.66029    0.80095    0.69601    1.000
    Si4130   Si       0.67192    0.84629    0.64056    1.000
    N4131    N        0.64654    0.76483    0.67947    1.000
    Si4132   Si       0.68931    0.94619    0.69666    1.000
    N4133    N        0.66552    0.88478    0.61876    1.000
    N4134    N        0.64987    0.96133    0.71125    1.000
    Si4135   Si       0.68651    0.97100    0.62845    1.000
    N4136    N        0.69088    0.00620    0.65393    1.000
    N4137    N        0.68937    0.93435    0.65494    1.000
    Si4138   Si       0.63954    0.91695    0.63466    1.000
    N4139    N        0.66289    0.85888    0.80957    1.000
    Si4140   Si       0.66845    0.78405    0.76869    1.000
    N4141    N        0.64005    0.77363    0.80075    1.000
    N4142    N        0.66124    0.92426    0.77887    1.000
    N4143    N        0.68641    0.94092    0.85596    1.000
    Si4144   Si       0.68678    0.98333    0.85295    1.000
    Si4145   Si       0.64132    0.88577    0.78295    1.000
    N4146    N        0.65525    0.00473    0.83044    1.000
    N4147    N        0.63889    0.99366    0.76162    1.000
    Si4148   Si       0.66641    0.87067    0.97031    1.000
    N4149    N        0.68232    0.84890    0.93689    1.000
    Si4150   Si       0.64461    0.85927    0.91648    1.000
    N4151    N        0.64541    0.88023    0.87788    1.000
    N4152    N        0.65474    0.75422    0.91703    1.000
    N4153    N        0.65770    0.93813    0.91829    1.000
    Si4154   Si       0.68437    0.95011    0.98831    1.000
    Si4155   Si       0.65063    0.92365    0.87776    1.000
    N4156    N        0.64215    0.95848    0.98240    1.000
    N4157    N        0.68229    0.90671    0.98767    1.000
    N4158    N        0.68883    0.99757    0.89444    1.000
    Si4159   Si       0.69569    0.96065    0.91800    1.000
    Si4160   Si       0.72017    0.04264    0.08257    1.000
    N4161    N        0.72127    0.07255    0.05114    1.000
    Si4162   Si       0.74727    0.06535    0.01724    1.000
    Si4163   Si       0.70380    0.11152    0.05110    1.000
    N4164    N        0.70089    0.05311    0.12045    1.000
    N4165    N        0.73023    0.13904    0.06987    1.000
    N4166    N        0.72858    0.24612    0.03101    1.000
    Si4167   Si       0.70190    0.14280    0.10426    1.000
    N4168    N        0.74272    0.08206    0.23614    1.000
    Si4169   Si       0.72120    0.04808    0.16038    1.000
    Si4170   Si       0.70007    0.06888    0.23104    1.000
    Si4171   Si       0.74656    0.12446    0.24349    1.000
    N4172    N        0.72009    0.13083    0.14177    1.000
    Si4173   Si       0.70457    0.14853    0.17806    1.000
    N4174    N        0.69744    0.19152    0.17856    1.000
    Si4175   Si       0.72347    0.19383    0.21605    1.000
    N4176    N        0.70989    0.24857    0.13389    1.000
    N4177    N        0.72575    0.14840    0.21584    1.000
    N4178    N        0.74030    0.23554    0.20918    1.000
    Si4179   Si       0.70833    0.20507    0.13941    1.000
    Si4180   Si       0.71315    0.03493    0.29660    1.000
    N4181    N        0.74087    0.12357    0.28581    1.000
    Si4182   Si       0.70046    0.10900    0.29394    1.000
    N4183    N        0.75430    0.04474    0.29390    1.000
    N4184    N        0.73463    0.15233    0.35677    1.000
    N4185    N        0.71795    0.19725    0.25869    1.000
    N4186    N        0.71483    0.21696    0.31606    1.000
    Si4187   Si       0.71036    0.18973    0.35178    1.000
    Si4188   Si       0.74984    0.20803    0.29070    1.000
    Si4189   Si       0.73073    0.25270    0.34126    1.000
    N4190    N        0.72176    0.08850    0.38141    1.000
    N4191    N        0.73566    0.05717    0.43117    1.000
    Si4192   Si       0.72376    0.13051    0.39371    1.000
    N4193    N        0.75541    0.12493    0.42200    1.000
    Si4194   Si       0.70032    0.05960    0.40510    1.000
    N4195    N        0.74520    0.19017    0.43799    1.000
    Si4196   Si       0.70207    0.18437    0.43576    1.000
    N4197    N        0.73456    0.21618    0.37842    1.000
    Si4198   Si       0.71678    0.25153    0.40534    1.000
    N4199    N        0.74741    0.14432    0.49218    1.000
    N4200    N        0.70265    0.06215    0.58007    1.000
    Si4201   Si       0.70796    0.10577    0.57939    1.000
    N4202    N        0.71529    0.12205    0.53841    1.000
    Si4203   Si       0.72399    0.10843    0.49927    1.000
    Si4204   Si       0.74669    0.06003    0.58546    1.000
    N4205    N        0.75220    0.07712    0.49837    1.000
    N4206    N        0.70309    0.18911    0.53830    1.000
    Si4207   Si       0.71176    0.21568    0.57240    1.000
    Si4208   Si       0.73771    0.16096    0.53298    1.000
    N4209    N        0.72150    0.19921    0.61196    1.000
    N4210    N        0.74945    0.23494    0.56229    1.000
    N4211    N        0.74068    0.09591    0.66090    1.000
    Si4212   Si       0.74733    0.09523    0.72769    1.000
    N4213    N        0.70856    0.08287    0.71366    1.000
    Si4214   Si       0.69959    0.10385    0.67587    1.000
    Si4215   Si       0.69760    0.18376    0.68584    1.000
    N4216    N        0.73737    0.18274    0.74472    1.000
    N4217    N        0.74117    0.18741    0.67653    1.000
    Si4218   Si       0.75429    0.21006    0.64093    1.000
    Si4219   Si       0.70655    0.07895    0.79224    1.000
    N4220    N        0.73606    0.10769    0.77105    1.000
    Si4221   Si       0.73827    0.03614    0.84666    1.000
    N4222    N        0.74009    0.05794    0.81097    1.000
    Si4223   Si       0.71739    0.13474    0.83712    1.000
    N4224    N        0.71246    0.21668    0.85369    1.000
    N4225    N        0.71935    0.16676    0.80761    1.000
    Si4226   Si       0.74729    0.15243    0.77626    1.000
    Si4227   Si       0.69751    0.19691    0.75207    1.000
    N4228    N        0.69288    0.22646    0.78376    1.000
    Si4229   Si       0.69335    0.19925    0.81953    1.000
    N4230    N        0.70888    0.05620    0.87419    1.000
    Si4231   Si       0.69929    0.01662    0.97524    1.000
    Si4232   Si       0.71296    0.03013    0.90954    1.000
    N4233    N        0.74086    0.09577    0.98460    1.000
    Si4234   Si       0.69956    0.10995    0.97604    1.000
    N4235    N        0.73667    0.02761    0.99387    1.000
    Si4236   Si       0.73163    0.19088    0.88303    1.000
    Si4237   Si       0.71778    0.24998    0.93071    1.000
    N4238    N        0.70310    0.19413    0.98749    1.000
    N4239    N        0.70040    0.14038    0.94465    1.000
    N4240    N        0.72346    0.20723    0.92282    1.000
    Si4241   Si       0.72280    0.17708    0.95413    1.000
    N4242    N        0.71255    0.15174    0.87677    1.000
    N4243    N        0.73206    0.35707    0.02425    1.000
    Si4244   Si       0.74574    0.27451    0.99977    1.000
    Si4245   Si       0.69795    0.37510    0.04066    1.000
    N4246    N        0.71428    0.47839    0.00371    1.000
    N4247    N        0.69572    0.41818    0.03370    1.000
    Si4248   Si       0.69984    0.39841    0.11567    1.000
    N4249    N        0.69532    0.43945    0.10012    1.000
    Si4250   Si       0.70243    0.43524    0.99508    1.000
    N4251    N        0.72365    0.33962    0.18902    1.000
    Si4252   Si       0.71373    0.26833    0.22241    1.000
    N4253    N        0.74204    0.29681    0.24055    1.000
    Si4254   Si       0.73665    0.37858    0.17946    1.000
    Si4255   Si       0.75222    0.33228    0.21947    1.000
    N4256    N        0.74215    0.48828    0.12509    1.000
    Si4257   Si       0.71604    0.42727    0.23674    1.000
    N4258    N        0.71065    0.40710    0.19899    1.000
    N4259    N        0.73569    0.39788    0.13769    1.000
    Si4260   Si       0.70028    0.47561    0.12517    1.000
    Si4261   Si       0.71860    0.36310    0.27756    1.000
    N4262    N        0.72409    0.28317    0.30572    1.000
    N4263    N        0.74071    0.35085    0.31118    1.000
    N4264    N        0.74983    0.36625    0.24609    1.000
    N4265    N        0.70181    0.27224    0.36811    1.000
    Si4266   Si       0.72365    0.43305    0.31102    1.000
    Si4267   Si       0.72797    0.49453    0.33580    1.000
    N4268    N        0.71133    0.47498    0.29926    1.000
    N4269    N        0.70746    0.40565    0.27481    1.000
    N4270    N        0.70087    0.49609    0.36953    1.000
    N4271    N        0.75170    0.45816    0.34883    1.000
    Si4272   Si       0.72066    0.32228    0.43311    1.000
    N4273    N        0.72774    0.33293    0.47464    1.000
    Si4274   Si       0.74363    0.37292    0.48718    1.000
    N4275    N        0.70259    0.28301    0.43293    1.000
    N4276    N        0.71794    0.45801    0.47192    1.000
    Si4277   Si       0.74113    0.49768    0.47226    1.000
    Si4278   Si       0.73793    0.43700    0.44071    1.000
    N4279    N        0.74213    0.39527    0.45059    1.000
    Si4280   Si       0.72263    0.38575    0.41169    1.000
    N4281    N        0.71149    0.42886    0.40628    1.000
    N4282    N        0.73698    0.30985    0.58290    1.000
    N4283    N        0.74463    0.37571    0.61426    1.000
    Si4284   Si       0.69873    0.33066    0.57083    1.000
    Si4285   Si       0.75114    0.33195    0.61743    1.000
    N4286    N        0.73289    0.40496    0.51775    1.000
    N4287    N        0.72891    0.46323    0.55926    1.000
    Si4288   Si       0.70672    0.47651    0.59699    1.000
    Si4289   Si       0.75018    0.44645    0.52353    1.000
    Si4290   Si       0.71638    0.31625    0.73159    1.000
    N4291    N        0.70653    0.28226    0.70572    1.000
    Si4292   Si       0.72782    0.27820    0.66792    1.000
    N4293    N        0.74334    0.31685    0.65776    1.000
    N4294    N        0.69861    0.35244    0.72116    1.000
    Si4295   Si       0.73213    0.37987    0.71296    1.000
    N4296    N        0.69487    0.25965    0.64407    1.000
    Si4297   Si       0.71834    0.40595    0.63234    1.000
    N4298    N        0.70518    0.42473    0.73011    1.000
    N4299    N        0.71839    0.39624    0.67386    1.000
    N4300    N        0.72372    0.44829    0.62593    1.000
    N4301    N        0.71641    0.29593    0.77217    1.000
    N4302    N        0.74128    0.28565    0.83754    1.000
    Si4303   Si       0.70888    0.25936    0.85230    1.000
    N4304    N        0.75052    0.41284    0.84588    1.000
    N4305    N        0.73681    0.38815    0.78176    1.000
    Si4306   Si       0.71895    0.40311    0.81773    1.000
    Si4307   Si       0.73889    0.42729    0.76013    1.000
    N4308    N        0.74528    0.48407    0.83389    1.000
    Si4309   Si       0.70501    0.47857    0.81745    1.000
    N4310    N        0.70559    0.44080    0.79589    1.000
    Si4311   Si       0.73181    0.33806    0.98467    1.000
    N4312    N        0.71855    0.27301    0.89412    1.000
    Si4313   Si       0.74799    0.30033    0.87754    1.000
    N4314    N        0.69783    0.36151    0.96605    1.000
    N4315    N        0.70949    0.30115    0.99283    1.000
    N4316    N        0.74843    0.26130    0.95869    1.000
    N4317    N        0.71440    0.39358    0.90551    1.000
    Si4318   Si       0.73319    0.51042    0.93574    1.000
    N4319    N        0.73916    0.42060    0.97491    1.000
    Si4320   Si       0.75057    0.38562    0.88128    1.000
    Si4321   Si       0.72337    0.38912    0.94784    1.000
    N4322    N        0.71850    0.47176    0.92482    1.000
    Si4323   Si       0.73017    0.55432    0.03504    1.000
    N4324    N        0.72843    0.58792    0.06466    1.000
    N4325    N        0.72858    0.55267    0.11765    1.000
    N4326    N        0.73762    0.57266    0.99790    1.000
    N4327    N        0.69493    0.53502    0.05053    1.000
    N4328    N        0.69778    0.64807    0.08914    1.000
    N4329    N        0.72724    0.70770    0.07376    1.000
    Si4330   Si       0.72536    0.75256    0.06896    1.000
    N4331    N        0.72382    0.75185    0.02404    1.000
    N4332    N        0.70913    0.65145    0.00197    1.000
    Si4333   Si       0.74363    0.72618    0.99440    1.000
    N4334    N        0.75272    0.62418    0.19709    1.000
    Si4335   Si       0.73823    0.53029    0.21755    1.000
    Si4336   Si       0.74616    0.60293    0.15899    1.000
    Si4337   Si       0.74522    0.52877    0.14994    1.000
    Si4338   Si       0.73191    0.59569    0.22191    1.000
    N4339    N        0.70732    0.61811    0.15070    1.000
    N4340    N        0.74498    0.56314    0.24507    1.000
    N4341    N        0.70268    0.51729    0.24213    1.000
    N4342    N        0.72107    0.51081    0.18209    1.000
    Si4343   Si       0.71134    0.65713    0.12869    1.000
    Si4344   Si       0.73291    0.73260    0.23391    1.000
    N4345    N        0.72736    0.70292    0.20001    1.000
    Si4346   Si       0.72381    0.56823    0.34729    1.000
    Si4347   Si       0.73430    0.61649    0.29654    1.000
    N4348    N        0.73692    0.53409    0.32430    1.000
    N4349    N        0.70491    0.59207    0.31261    1.000
    N4350    N        0.72078    0.62413    0.25500    1.000
    Si4351   Si       0.75224    0.54958    0.28564    1.000
    N4352    N        0.69924    0.75187    0.25651    1.000
    N4353    N        0.72271    0.72726    0.32074    1.000
    Si4354   Si       0.73232    0.69446    0.29393    1.000
    Si4355   Si       0.71893    0.72679    0.36474    1.000
    N4356    N        0.75038    0.65617    0.30660    1.000
    N4357    N        0.69640    0.68609    0.26865    1.000
    N4358    N        0.71486    0.52928    0.46937    1.000
    N4359    N        0.72514    0.60899    0.42548    1.000
    Si4360   Si       0.73061    0.62844    0.46315    1.000
    N4361    N        0.72950    0.59826    0.49710    1.000
    N4362    N        0.70727    0.66228    0.47341    1.000
    N4363    N        0.71821    0.67789    0.40982    1.000
    N4364    N        0.71037    0.59823    0.56540    1.000
    Si4365   Si       0.71401    0.61777    0.60552    1.000
    N4366    N        0.72185    0.51656    0.59333    1.000
    Si4367   Si       0.71267    0.62298    0.53096    1.000
    N4368    N        0.70892    0.53792    0.53629    1.000
    Si4369   Si       0.69862    0.55575    0.57997    1.000
    Si4370   Si       0.73774    0.50957    0.55015    1.000
    N4371    N        0.71107    0.57688    0.62243    1.000
    Si4372   Si       0.70524    0.55948    0.49995    1.000
    Si4373   Si       0.73499    0.74152    0.61267    1.000
    N4374    N        0.73511    0.65884    0.54315    1.000
    N4375    N        0.71919    0.70220    0.60055    1.000
    Si4376   Si       0.72415    0.69948    0.55592    1.000
    Si4377   Si       0.75132    0.59737    0.71085    1.000
    N4378    N        0.71715    0.57581    0.69496    1.000
    Si4379   Si       0.71941    0.54428    0.72671    1.000
    N4380    N        0.74326    0.52750    0.65603    1.000
    Si4381   Si       0.71017    0.55417    0.65963    1.000
    Si4382   Si       0.70084    0.68185    0.63646    1.000
    N4383    N        0.74057    0.63770    0.72617    1.000
    N4384    N        0.70358    0.69103    0.74249    1.000
    Si4385   Si       0.71124    0.66582    0.70878    1.000
    N4386    N        0.72709    0.68642    0.67191    1.000
    N4387    N        0.73780    0.55529    0.82286    1.000
    N4388    N        0.73592    0.62298    0.80693    1.000
    N4389    N        0.70331    0.56913    0.75701    1.000
    Si4390   Si       0.70268    0.55138    0.79835    1.000
    Si4391   Si       0.69676    0.63558    0.82133    1.000
    N4392    N        0.73365    0.73013    0.80476    1.000
    Si4393   Si       0.72491    0.72334    0.76372    1.000
    N4394    N        0.70085    0.67588    0.84023    1.000
    Si4395   Si       0.69687    0.71604    0.82448    1.000
    N4396    N        0.74856    0.59948    0.87503    1.000
    Si4397   Si       0.72932    0.56740    0.89639    1.000
    N4398    N        0.70164    0.53539    0.94997    1.000
    N4399    N        0.72891    0.59415    0.93089    1.000
    Si4400   Si       0.70972    0.57504    0.96323    1.000
    N4401    N        0.74978    0.53145    0.90222    1.000
    Si4402   Si       0.75119    0.62635    0.91297    1.000
    N4403    N        0.72241    0.66215    0.90483    1.000
    N4404    N        0.71815    0.73236    0.91198    1.000
    N4405    N        0.71807    0.70366    0.96737    1.000
    Si4406   Si       0.74012    0.69543    0.92747    1.000
    Si4407   Si       0.75074    0.65764    0.99342    1.000
    N4408    N        0.72060    0.83356    0.09382    1.000
    Si4409   Si       0.73736    0.86788    0.07442    1.000
    N4410    N        0.73231    0.81561    0.00774    1.000
    Si4411   Si       0.70552    0.78487    0.00143    1.000
    Si4412   Si       0.74942    0.80670    0.11400    1.000
    N4413    N        0.71019    0.89313    0.05067    1.000
    Si4414   Si       0.72965    0.93168    0.04031    1.000
    Si4415   Si       0.73004    0.93234    0.11055    1.000
    N4416    N        0.74608    0.95104    0.07662    1.000
    N4417    N        0.74714    0.89278    0.10997    1.000
    N4418    N        0.69990    0.95956    0.02636    1.000
    N4419    N        0.73101    0.79217    0.15051    1.000
    N4420    N        0.75014    0.76696    0.21737    1.000
    N4421    N        0.71773    0.82127    0.23847    1.000
    Si4422   Si       0.72043    0.94034    0.22924    1.000
    N4423    N        0.73384    0.00888    0.16897    1.000
    N4424    N        0.70910    0.93636    0.18610    1.000
    N4425    N        0.72454    0.89539    0.23200    1.000
    Si4426   Si       0.73974    0.96724    0.17619    1.000
    Si4427   Si       0.71821    0.89155    0.19077    1.000
    N4428    N        0.73658    0.83599    0.35425    1.000
    Si4429   Si       0.72580    0.85975    0.25791    1.000
    Si4430   Si       0.70522    0.80310    0.36146    1.000
    Si4431   Si       0.71600    0.76282    0.29743    1.000
    N4432    N        0.70057    0.86189    0.29291    1.000
    N4433    N        0.75300    0.78448    0.28798    1.000
    N4434    N        0.73020    0.92746    0.31926    1.000
    Si4435   Si       0.72578    0.96661    0.30075    1.000
    N4436    N        0.70356    0.95785    0.26450    1.000
    N4437    N        0.70768    0.00029    0.32186    1.000
    Si4438   Si       0.69760    0.89776    0.31592    1.000
    Si4439   Si       0.72143    0.86874    0.38080    1.000
    Si4440   Si       0.71074    0.76551    0.42632    1.000
    N4441    N        0.71659    0.76729    0.38332    1.000
    N4442    N        0.71357    0.86732    0.42414    1.000
    Si4443   Si       0.73666    0.88176    0.45656    1.000
    N4444    N        0.72989    0.85968    0.49306    1.000
    N4445    N        0.73089    0.98640    0.44572    1.000
    N4446    N        0.72737    0.92244    0.46998    1.000
    Si4447   Si       0.73822    0.76809    0.53875    1.000
    N4448    N        0.72057    0.76538    0.57935    1.000
    N4449    N        0.70872    0.76874    0.50782    1.000
    N4450    N        0.70063    0.87257    0.55546    1.000
    Si4451   Si       0.69293    0.86384    0.51393    1.000
    N4452    N        0.71987    0.93639    0.54082    1.000
    N4453    N        0.73595    0.90986    0.60675    1.000
    Si4454   Si       0.73280    0.89995    0.56381    1.000
    Si4455   Si       0.72724    0.97660    0.55778    1.000
    Si4456   Si       0.69847    0.93224    0.50050    1.000
    N4457    N        0.72431    0.00944    0.52732    1.000
    N4458    N        0.69612    0.98661    0.58700    1.000
    N4459    N        0.70733    0.80221    0.69840    1.000
    Si4460   Si       0.73238    0.83691    0.68603    1.000
    N4461    N        0.71182    0.85828    0.65555    1.000
    Si4462   Si       0.73718    0.77624    0.67612    1.000
    Si4463   Si       0.72081    0.79708    0.73964    1.000
    N4464    N        0.74942    0.85904    0.72028    1.000
    N4465    N        0.71184    0.75651    0.64609    1.000
    Si4466   Si       0.74624    0.96413    0.73879    1.000
    Si4467   Si       0.74617    0.89926    0.71172    1.000
    N4468    N        0.72113    0.97454    0.70558    1.000
    Si4469   Si       0.71300    0.89899    0.64372    1.000
    N4470    N        0.74907    0.90668    0.66916    1.000
    N4471    N        0.75110    0.97196    0.64268    1.000
    Si4472   Si       0.73141    0.99854    0.67114    1.000
    N4473    N        0.70629    0.91433    0.72320    1.000
    N4474    N        0.73133    0.82812    0.82727    1.000
    Si4475   Si       0.70345    0.84818    0.80101    1.000
    Si4476   Si       0.73848    0.83540    0.86826    1.000
    N4477    N        0.70023    0.75789    0.75328    1.000
    N4478    N        0.69828    0.81828    0.76902    1.000
    N4479    N        0.71881    0.88685    0.78839    1.000
    N4480    N        0.72698    0.95657    0.77740    1.000
    N4481    N        0.72569    0.99595    0.83746    1.000
    Si4482   Si       0.74557    0.96578    0.81525    1.000
    Si4483   Si       0.70284    0.92120    0.76747    1.000
    N4484    N        0.75642    0.93378    0.84303    1.000
    N4485    N        0.72638    0.87711    0.87235    1.000
    N4486    N        0.71985    0.80430    0.89350    1.000
    N4487    N        0.70441    0.78375    0.95669    1.000
    Si4488   Si       0.71262    0.81822    0.93422    1.000
    N4489    N        0.74858    0.84393    0.94670    1.000
    Si4490   Si       0.71951    0.76095    0.88007    1.000
    Si4491   Si       0.72633    0.91904    0.86881    1.000
    N4492    N        0.70240    0.97622    0.95860    1.000
    N4493    N        0.73090    0.93884    0.90771    1.000
    N4494    N        0.78420    0.05941    0.03868    1.000
    Si4495   Si       0.78569    0.05741    0.08108    1.000
    N4496    N        0.77742    0.09122    0.10783    1.000
    N4497    N        0.75779    0.02111    0.08871    1.000
    Si4498   Si       0.81084    0.02754    0.02427    1.000
    N4499    N        0.78405    0.13374    0.02518    1.000
    Si4500   Si       0.76377    0.24132    0.05623    1.000
    Si4501   Si       0.76606    0.15539    0.05811    1.000
    N4502    N        0.77093    0.19924    0.06242    1.000
    N4503    N        0.80387    0.15106    0.08207    1.000
    Si4504   Si       0.81087    0.19283    0.08577    1.000
    N4505    N        0.78766    0.25812    0.02215    1.000
    N4506    N        0.77978    0.03015    0.22773    1.000
    Si4507   Si       0.78863    0.05077    0.18899    1.000
    Si4508   Si       0.75678    0.10695    0.14277    1.000
    N4509    N        0.75484    0.07402    0.16938    1.000
    N4510    N        0.75288    0.20226    0.13609    1.000
    Si4511   Si       0.75564    0.24777    0.13209    1.000
    Si4512   Si       0.78783    0.18146    0.15426    1.000
    N4513    N        0.78555    0.13758    0.15793    1.000
    Si4514   Si       0.78260    0.24041    0.19933    1.000
    N4515    N        0.79289    0.19658    0.19584    1.000
    N4516    N        0.80269    0.09328    0.27391    1.000
    Si4517   Si       0.77621    0.06147    0.25746    1.000
    Si4518   Si       0.78640    0.01653    0.30491    1.000
    Si4519   Si       0.78411    0.12835    0.28917    1.000
    N4520    N        0.80585    0.01179    0.34251    1.000
    N4521    N        0.79977    0.13099    0.32763    1.000
    Si4522   Si       0.80165    0.23421    0.32503    1.000
    N4523    N        0.77344    0.24179    0.27573    1.000
    Si4524   Si       0.77819    0.16176    0.34823    1.000
    N4525    N        0.77985    0.19577    0.32210    1.000
    N4526    N        0.78362    0.14628    0.24725    1.000
    Si4527   Si       0.81414    0.23089    0.26006    1.000
    Si4528   Si       0.75685    0.02061    0.44135    1.000
    N4529    N        0.78933    0.07627    0.37428    1.000
    Si4530   Si       0.80465    0.03640    0.37861    1.000
    N4531    N        0.77767    0.02429    0.48213    1.000
    N4532    N        0.79741    0.07483    0.43741    1.000
    Si4533   Si       0.79112    0.06778    0.47932    1.000
    Si4534   Si       0.76391    0.08346    0.40960    1.000
    N4535    N        0.78238    0.01386    0.40638    1.000
    N4536    N        0.81229    0.22012    0.42287    1.000
    Si4537   Si       0.76310    0.15550    0.45432    1.000
    N4538    N        0.76038    0.25427    0.41841    1.000
    N4539    N        0.79818    0.23185    0.48283    1.000
    Si4540   Si       0.77022    0.20926    0.40779    1.000
    N4541    N        0.80557    0.16248    0.45364    1.000
    N4542    N        0.78977    0.17447    0.38630    1.000
    Si4543   Si       0.79462    0.25675    0.44626    1.000
    N4544    N        0.77664    0.04558    0.55505    1.000
    Si4545   Si       0.78477    0.13110    0.58675    1.000
    N4546    N        0.75531    0.03723    0.62000    1.000
    Si4547   Si       0.75497    0.03747    0.51763    1.000
    N4548    N        0.75172    0.10425    0.58893    1.000
    N4549    N        0.76977    0.16493    0.56312    1.000
    Si4550   Si       0.78122    0.20677    0.57161    1.000
    N4551    N        0.78680    0.20340    0.61508    1.000
    N4552    N        0.81010    0.06984    0.65409    1.000
    N4553    N        0.75964    0.02944    0.68277    1.000
    Si4554   Si       0.76631    0.06279    0.65309    1.000
    N4555    N        0.78065    0.06822    0.73597    1.000
    Si4556   Si       0.78602    0.02866    0.71674    1.000
    N4557    N        0.76727    0.13168    0.71414    1.000
    N4558    N        0.80460    0.18080    0.71785    1.000
    N4559    N        0.80448    0.13591    0.62687    1.000
    Si4560   Si       0.80773    0.14195    0.73750    1.000
    Si4561   Si       0.76356    0.17381    0.71013    1.000
    N4562    N        0.76168    0.25305    0.65653    1.000
    Si4563   Si       0.76679    0.09282    0.80479    1.000
    N4564    N        0.75877    0.12257    0.83473    1.000
    N4565    N        0.77600    0.04268    0.86722    1.000
    N4566    N        0.80789    0.08814    0.79969    1.000
    Si4567   Si       0.78651    0.14297    0.86064    1.000
    N4568    N        0.79046    0.15500    0.77595    1.000
    Si4569   Si       0.79249    0.01750    0.90053    1.000
    N4570    N        0.79073    0.11719    0.89426    1.000
    Si4571   Si       0.77390    0.12512    0.98188    1.000
    Si4572   Si       0.80126    0.07705    0.88233    1.000
    Si4573   Si       0.76571    0.01644    0.96513    1.000
    N4574    N        0.80468    0.03280    0.98173    1.000
    N4575    N        0.80749    0.10602    0.96334    1.000
    N4576    N        0.75215    0.02067    0.92439    1.000
    N4577    N        0.81126    0.05509    0.91882    1.000
    N4578    N        0.77588    0.18315    0.87623    1.000
    N4579    N        0.76438    0.16468    0.96593    1.000
    N4580    N        0.79667    0.22603    0.93424    1.000
    Si4581   Si       0.79903    0.19136    0.96095    1.000
    Si4582   Si       0.80795    0.20160    0.89967    1.000
    N4583    N        0.78288    0.33647    0.07220    1.000
    Si4584   Si       0.77772    0.34733    0.02876    1.000
    Si4585   Si       0.79609    0.30029    0.09545    1.000
    N4586    N        0.76845    0.31307    0.00180    1.000
    Si4587   Si       0.80650    0.36096    0.10194    1.000
    N4588    N        0.76960    0.26566    0.09432    1.000
    Si4589   Si       0.81154    0.29611    0.00306    1.000
    N4590    N        0.79122    0.38875    0.01939    1.000
    Si4591   Si       0.75467    0.49017    0.00250    1.000
    N4592    N        0.78301    0.45864    0.00909    1.000
    N4593    N        0.79854    0.40325    0.11157    1.000
    N4594    N        0.79222    0.32505    0.20409    1.000
    Si4595   Si       0.80086    0.30211    0.16586    1.000
    N4596    N        0.79845    0.32700    0.13048    1.000
    N4597    N        0.78140    0.26427    0.16244    1.000
    Si4598   Si       0.80971    0.36537    0.20843    1.000
    Si4599   Si       0.78627    0.47958    0.13225    1.000
    N4600    N        0.78160    0.38543    0.18206    1.000
    N4601    N        0.77134    0.50232    0.22060    1.000
    Si4602   Si       0.77764    0.41190    0.14740    1.000
    Si4603   Si       0.78544    0.46253    0.20921    1.000
    N4604    N        0.78395    0.45231    0.16547    1.000
    N4605    N        0.75900    0.43712    0.23376    1.000
    N4606    N        0.81353    0.38611    0.24770    1.000
    N4607    N        0.79356    0.30604    0.28945    1.000
    Si4608   Si       0.78012    0.33634    0.31694    1.000
    N4609    N        0.79481    0.32240    0.35836    1.000
    N4610    N        0.77232    0.26033    0.34791    1.000
    Si4611   Si       0.75881    0.28209    0.27831    1.000
    Si4612   Si       0.77447    0.40200    0.25897    1.000
    N4613    N        0.76891    0.42153    0.29827    1.000
    Si4614   Si       0.78959    0.44855    0.32664    1.000
    N4615    N        0.80899    0.42577    0.36066    1.000
    Si4616   Si       0.78031    0.35082    0.39096    1.000
    Si4617   Si       0.77781    0.28758    0.38673    1.000
    N4618    N        0.79458    0.29551    0.46533    1.000
    N4619    N        0.75398    0.32080    0.40752    1.000
    Si4620   Si       0.76742    0.42776    0.37936    1.000
    N4621    N        0.77371    0.44575    0.41800    1.000
    N4622    N        0.75561    0.38628    0.38281    1.000
    Si4623   Si       0.79948    0.47747    0.43097    1.000
    N4624    N        0.78529    0.28598    0.52939    1.000
    Si4625   Si       0.79581    0.31747    0.50100    1.000
    N4626    N        0.78277    0.35978    0.49860    1.000
    N4627    N        0.79362    0.33716    0.61730    1.000
    Si4628   Si       0.75242    0.27684    0.55838    1.000
    N4629    N        0.79122    0.43185    0.51216    1.000
    N4630    N        0.75908    0.49042    0.51226    1.000
    Si4631   Si       0.81376    0.38977    0.50419    1.000
    N4632    N        0.78061    0.49200    0.62047    1.000
    N4633    N        0.80473    0.30387    0.68942    1.000
    Si4634   Si       0.77316    0.33320    0.68453    1.000
    N4635    N        0.78772    0.37195    0.67301    1.000
    Si4636   Si       0.80047    0.26690    0.66657    1.000
    N4637    N        0.75694    0.34045    0.72702    1.000
    Si4638   Si       0.79089    0.38116    0.62976    1.000
    N4639    N        0.76795    0.46982    0.68283    1.000
    Si4640   Si       0.77947    0.44676    0.71714    1.000
    Si4641   Si       0.80335    0.38911    0.71054    1.000
    N4642    N        0.76566    0.40456    0.72636    1.000
    Si4643   Si       0.76194    0.46135    0.64193    1.000
    N4644    N        0.78574    0.42603    0.63067    1.000
    N4645    N        0.77438    0.33267    0.79905    1.000
    Si4646   Si       0.76661    0.36069    0.76599    1.000
    N4647    N        0.77791    0.26302    0.77952    1.000
    Si4648   Si       0.75249    0.29387    0.79586    1.000
    N4649    N        0.80313    0.38238    0.77343    1.000
    Si4650   Si       0.81296    0.35144    0.81431    1.000
    Si4651   Si       0.79987    0.48009    0.78087    1.000
    Si4652   Si       0.77168    0.44978    0.84660    1.000
    N4653    N        0.80157    0.45053    0.81377    1.000
    N4654    N        0.76985    0.45858    0.75627    1.000
    N4655    N        0.75980    0.34290    0.88103    1.000
    N4656    N        0.78336    0.28961    0.90139    1.000
    Si4657   Si       0.80095    0.32661    0.88977    1.000
    Si4658   Si       0.78713    0.26830    0.93811    1.000
    Si4659   Si       0.79430    0.37882    0.93796    1.000
    N4660    N        0.75868    0.36329    0.95632    1.000
    Si4661   Si       0.78001    0.42002    0.98947    1.000
    Si4662   Si       0.80729    0.43597    0.91076    1.000
    N4663    N        0.78754    0.46513    0.88588    1.000
    N4664    N        0.78167    0.40148    0.90461    1.000
    N4665    N        0.76711    0.50826    0.96452    1.000
    N4666    N        0.81104    0.41477    0.95606    1.000
    N4667    N        0.79131    0.55305    0.08626    1.000
    Si4668   Si       0.79843    0.53223    0.04806    1.000
    N4669    N        0.77941    0.62726    0.01276    1.000
    N4670    N        0.76016    0.52011    0.03425    1.000
    Si4671   Si       0.75564    0.57734    0.09528    1.000
    N4672    N        0.80754    0.56542    0.02256    1.000
    N4673    N        0.76901    0.60943    0.12267    1.000
    Si4674   Si       0.80446    0.64378    0.04266    1.000
    Si4675   Si       0.76854    0.69767    0.05809    1.000
    N4676    N        0.78497    0.66370    0.07603    1.000
    N4677    N        0.79690    0.73124    0.05028    1.000
    Si4678   Si       0.78531    0.64906    0.11649    1.000
    N4679    N        0.76221    0.69326    0.01552    1.000
    Si4680   Si       0.81069    0.51263    0.24505    1.000
    N4681    N        0.75505    0.56471    0.17848    1.000
    Si4682   Si       0.79923    0.55477    0.17947    1.000
    N4683    N        0.78993    0.52217    0.14746    1.000
    N4684    N        0.79516    0.68427    0.19531    1.000
    Si4685   Si       0.78616    0.64612    0.21263    1.000
    Si4686   Si       0.76102    0.69587    0.17155    1.000
    N4687    N        0.77092    0.73370    0.15287    1.000
    N4688    N        0.75218    0.67090    0.13655    1.000
    Si4689   Si       0.79265    0.59150    0.33812    1.000
    N4690    N        0.78570    0.52400    0.28099    1.000
    N4691    N        0.76979    0.58880    0.30059    1.000
    N4692    N        0.75854    0.59002    0.36548    1.000
    N4693    N        0.80853    0.63092    0.33297    1.000
    Si4694   Si       0.79444    0.65188    0.29746    1.000
    Si4695   Si       0.80179    0.71805    0.27276    1.000
    N4696    N        0.80113    0.64421    0.25404    1.000
    N4697    N        0.75947    0.71435    0.26444    1.000
    Si4698   Si       0.79799    0.54500    0.45285    1.000
    N4699    N        0.79643    0.57577    0.42142    1.000
    Si4700   Si       0.76696    0.60510    0.40679    1.000
    N4701    N        0.77391    0.62841    0.46775    1.000
    N4702    N        0.78488    0.55507    0.49276    1.000
    N4703    N        0.77546    0.50889    0.44528    1.000
    N4704    N        0.80928    0.74680    0.41826    1.000
    Si4705   Si       0.76135    0.68240    0.40695    1.000
    N4706    N        0.77289    0.69630    0.44662    1.000
    Si4707   Si       0.78483    0.73894    0.45240    1.000
    N4708    N        0.80605    0.74478    0.49012    1.000
    N4709    N        0.75735    0.71730    0.38229    1.000
    Si4710   Si       0.79981    0.66456    0.46660    1.000
    N4711    N        0.78319    0.64509    0.39906    1.000
    Si4712   Si       0.77385    0.75728    0.39296    1.000
    N4713    N        0.79257    0.61206    0.53196    1.000
    N4714    N        0.77642    0.53339    0.55805    1.000
    Si4715   Si       0.79006    0.52253    0.51901    1.000
    N4716    N        0.78348    0.56267    0.61457    1.000
    Si4717   Si       0.80841    0.55129    0.58109    1.000
    N4718    N        0.75434    0.63051    0.61692    1.000
    Si4719   Si       0.75652    0.52827    0.61510    1.000
    Si4720   Si       0.77368    0.59626    0.49828    1.000
    N4721    N        0.79655    0.66494    0.57894    1.000
    Si4722   Si       0.79547    0.71915    0.52341    1.000
    Si4723   Si       0.77712    0.65126    0.54251    1.000
    N4724    N        0.79660    0.67665    0.51189    1.000
    N4725    N        0.75565    0.72659    0.54001    1.000
    Si4726   Si       0.78855    0.65859    0.62097    1.000
    N4727    N        0.76162    0.53151    0.72342    1.000
    N4728    N        0.77820    0.59861    0.67989    1.000
    Si4729   Si       0.77726    0.59944    0.63549    1.000
    Si4730   Si       0.77405    0.51375    0.68486    1.000
    N4731    N        0.76971    0.58985    0.75053    1.000
    Si4732   Si       0.76220    0.71077    0.66488    1.000
    N4733    N        0.76279    0.74483    0.69411    1.000
    N4734    N        0.77367    0.73739    0.62982    1.000
    N4735    N        0.79668    0.68400    0.65627    1.000
    Si4736   Si       0.78292    0.75606    0.73213    1.000
    N4737    N        0.79510    0.52667    0.85010    1.000
    N4738    N        0.79541    0.58683    0.81566    1.000
    N4739    N        0.78494    0.52064    0.78514    1.000
    Si4740   Si       0.76233    0.52143    0.82183    1.000
    Si4741   Si       0.78746    0.55028    0.75299    1.000
    Si4742   Si       0.75669    0.59332    0.83191    1.000
    Si4743   Si       0.75543    0.62746    0.76728    1.000
    N4744    N        0.80262    0.71695    0.81477    1.000
    Si4745   Si       0.79543    0.69632    0.77903    1.000
    N4746    N        0.79133    0.65192    0.77553    1.000
    Si4747   Si       0.76877    0.74528    0.82305    1.000
    N4748    N        0.76939    0.72065    0.75416    1.000
    N4749    N        0.76062    0.75170    0.86491    1.000
    N4750    N        0.79723    0.57668    0.95845    1.000
    Si4751   Si       0.80188    0.53246    0.95430    1.000
    Si4752   Si       0.78663    0.50923    0.88847    1.000
    Si4753   Si       0.77833    0.58809    0.99496    1.000
    N4754    N        0.76138    0.65616    0.95220    1.000
    N4755    N        0.78359    0.70405    0.91391    1.000
    N4756    N        0.77181    0.74673    0.97155    1.000
    Si4757   Si       0.79842    0.66724    0.93226    1.000
    Si4758   Si       0.79350    0.73980    0.89263    1.000
    N4759    N        0.79286    0.63944    0.90091    1.000
    N4760    N        0.77522    0.86090    0.05398    1.000
    Si4761   Si       0.80166    0.83616    0.07834    1.000
    Si4762   Si       0.80029    0.76423    0.07669    1.000
    N4763    N        0.78289    0.83533    0.11677    1.000
    N4764    N        0.75937    0.77219    0.08911    1.000
    Si4765   Si       0.78864    0.89010    0.02392    1.000
    Si4766   Si       0.77787    0.98407    0.07748    1.000
    N4767    N        0.79272    0.98773    0.03442    1.000
    N4768    N        0.76451    0.92406    0.01589    1.000
    Si4769   Si       0.78761    0.95830    0.00132    1.000
    N4770    N        0.80958    0.95941    0.09491    1.000
    Si4771   Si       0.77580    0.87039    0.21435    1.000
    Si4772   Si       0.77363    0.87404    0.13762    1.000
    N4773    N        0.79917    0.78391    0.16937    1.000
    Si4774   Si       0.75904    0.77062    0.17588    1.000
    N4775    N        0.75512    0.87471    0.17748    1.000
    N4776    N        0.80089    0.79559    0.24064    1.000
    Si4777   Si       0.79857    0.94568    0.21306    1.000
    N4778    N        0.75726    0.94703    0.14231    1.000
    N4779    N        0.75735    0.96020    0.21649    1.000
    Si4780   Si       0.77459    0.99037    0.24437    1.000
    N4781    N        0.80157    0.90599    0.22141    1.000
    Si4782   Si       0.80015    0.94204    0.13602    1.000
    N4783    N        0.81099    0.90014    0.13675    1.000
    Si4784   Si       0.77846    0.85152    0.34949    1.000
    Si4785   Si       0.78588    0.78412    0.31494    1.000
    N4786    N        0.78905    0.77827    0.35851    1.000
    Si4787   Si       0.80279    0.85590    0.28535    1.000
    N4788    N        0.77070    0.85347    0.25397    1.000
    N4789    N        0.80153    0.82331    0.31702    1.000
    Si4790   Si       0.75718    0.80105    0.24756    1.000
    N4791    N        0.78554    0.88148    0.31767    1.000
    Si4792   Si       0.76637    0.91573    0.33843    1.000
    N4793    N        0.78946    0.94779    0.35429    1.000
    N4794    N        0.76469    0.98267    0.28590    1.000
    N4795    N        0.75374    0.76357    0.43572    1.000
    N4796    N        0.81075    0.84278    0.37657    1.000
    N4797    N        0.77860    0.88634    0.44353    1.000
    Si4798   Si       0.75523    0.95294    0.45791    1.000
    Si4799   Si       0.80773    0.98064    0.41756    1.000
    N4800    N        0.75905    0.89204    0.37478    1.000
    N4801    N        0.78486    0.95662    0.48875    1.000
    N4802    N        0.78060    0.94758    0.42419    1.000
    Si4803   Si       0.80824    0.99500    0.48956    1.000
    Si4804   Si       0.78656    0.90956    0.40589    1.000
    N4805    N        0.76670    0.87350    0.55192    1.000
    N4806    N        0.80032    0.85554    0.50418    1.000
    Si4807   Si       0.80845    0.87484    0.54490    1.000
    Si4808   Si       0.76218    0.84303    0.51843    1.000
    N4809    N        0.75939    0.80372    0.53369    1.000
    N4810    N        0.76695    0.97514    0.57877    1.000
    Si4811   Si       0.77244    0.99758    0.61434    1.000
    Si4812   Si       0.80296    0.82381    0.66657    1.000
    N4813    N        0.76146    0.81113    0.66649    1.000
    Si4814   Si       0.78274    0.83783    0.73887    1.000
    N4815    N        0.76381    0.79567    0.73945    1.000
    Si4816   Si       0.81001    0.75845    0.62824    1.000
    N4817    N        0.81535    0.83842    0.70653    1.000
    N4818    N        0.81553    0.85098    0.63526    1.000
    N4819    N        0.77405    0.99736    0.74456    1.000
    N4820    N        0.80563    0.93090    0.62932    1.000
    N4821    N        0.77095    0.92719    0.73346    1.000
    Si4822   Si       0.76359    0.93170    0.63435    1.000
    N4823    N        0.78797    0.78093    0.80844    1.000
    N4824    N        0.78453    0.84528    0.78421    1.000
    Si4825   Si       0.77562    0.82064    0.81941    1.000
    N4826    N        0.78117    0.82499    0.86388    1.000
    N4827    N        0.79127    0.97537    0.80585    1.000
    Si4828   Si       0.79649    0.93570    0.82838    1.000
    Si4829   Si       0.80635    0.92189    0.75800    1.000
    N4830    N        0.80063    0.90754    0.79821    1.000
    Si4831   Si       0.80693    0.99192    0.77087    1.000
    N4832    N        0.80231    0.80256    0.98325    1.000
    Si4833   Si       0.76637    0.82746    0.98530    1.000
    Si4834   Si       0.78287    0.87374    0.94536    1.000
    N4835    N        0.80161    0.77473    0.91726    1.000
    Si4836   Si       0.80597    0.81440    0.89702    1.000
    N4837    N        0.79412    0.86408    0.98691    1.000
    Si4838   Si       0.80930    0.76447    0.96111    1.000
    N4839    N        0.81115    0.84853    0.92360    1.000
    N4840    N        0.79098    0.97569    0.89887    1.000
    N4841    N        0.77101    0.97331    0.96500    1.000
    N4842    N        0.79224    0.91470    0.93540    1.000
    Si4843   Si       0.76771    0.95059    0.92724    1.000
    N4844    N        0.83399    0.09676    0.07435    1.000
    N4845    N        0.85187    0.03851    0.03373    1.000
    Si4846   Si       0.85786    0.06119    0.07474    1.000
    N4847    N        0.82328    0.03427    0.08968    1.000
    Si4848   Si       0.82114    0.12802    0.04697    1.000
    Si4849   Si       0.81456    0.11584    0.10827    1.000
    N4850    N        0.85255    0.15486    0.03682    1.000
    Si4851   Si       0.82476    0.23544    0.02205    1.000
    N4852    N        0.83292    0.22360    0.06350    1.000
    Si4853   Si       0.86019    0.17749    0.00009    1.000
    Si4854   Si       0.85848    0.25371    0.08353    1.000
    Si4855   Si       0.84033    0.02680    0.12713    1.000
    Si4856   Si       0.85996    0.06033    0.21105    1.000
    N4857    N        0.84185    0.11055    0.14192    1.000
    N4858    N        0.85560    0.01719    0.21199    1.000
    Si4859   Si       0.82033    0.11871    0.17859    1.000
    N4860    N        0.82131    0.08090    0.19975    1.000
    N4861    N        0.81175    0.02787    0.16121    1.000
    N4862    N        0.84130    0.14896    0.20212    1.000
    Si4863   Si       0.86360    0.20342    0.13152    1.000
    N4864    N        0.81960    0.19539    0.12820    1.000
    N4865    N        0.86226    0.24795    0.12670    1.000
    Si4866   Si       0.81261    0.16964    0.22467    1.000
    N4867    N        0.81579    0.25408    0.22389    1.000
    Si4868   Si       0.83747    0.07212    0.28449    1.000
    N4869    N        0.85018    0.08456    0.32576    1.000
    N4870    N        0.81879    0.03163    0.27965    1.000
    Si4871   Si       0.82022    0.10103    0.35398    1.000
    N4872    N        0.86909    0.06651    0.25411    1.000
    Si4873   Si       0.83925    0.00689    0.25287    1.000
    Si4874   Si       0.87221    0.17893    0.26927    1.000
    Si4875   Si       0.86651    0.23464    0.32442    1.000
    N4876    N        0.83177    0.19195    0.25710    1.000
    N4877    N        0.83643    0.22826    0.35447    1.000
    N4878    N        0.83408    0.24999    0.29506    1.000
    N4879    N        0.84419    0.04660    0.39428    1.000
    Si4880   Si       0.83790    0.08271    0.42029    1.000
    N4881    N        0.83841    0.11613    0.39220    1.000
    N4882    N        0.86579    0.08462    0.45129    1.000
    Si4883   Si       0.86367    0.06363    0.48875    1.000
    Si4884   Si       0.82113    0.15418    0.41229    1.000
    N4885    N        0.86386    0.20577    0.47270    1.000
    N4886    N        0.85995    0.17114    0.41362    1.000
    Si4887   Si       0.83816    0.24218    0.39462    1.000
    Si4888   Si       0.82218    0.19928    0.46364    1.000
    N4889    N        0.84354    0.03646    0.56785    1.000
    N4890    N        0.85668    0.09810    0.61083    1.000
    Si4891   Si       0.85052    0.12687    0.57791    1.000
    N4892    N        0.82351    0.06398    0.50675    1.000
    Si4893   Si       0.81462    0.06568    0.55069    1.000
    N4894    N        0.81474    0.10838    0.56224    1.000
    Si4895   Si       0.86633    0.05564    0.60093    1.000
    N4896    N        0.84135    0.16912    0.58399    1.000
    Si4897   Si       0.85297    0.20914    0.57014    1.000
    N4898    N        0.86967    0.23424    0.59995    1.000
    N4899    N        0.81528    0.22572    0.55350    1.000
    Si4900   Si       0.81052    0.25152    0.51942    1.000
    Si4901   Si       0.86919    0.10519    0.71305    1.000
    Si4902   Si       0.82779    0.02978    0.65553    1.000
    N4903    N        0.82607    0.01640    0.69808    1.000
    Si4904   Si       0.85823    0.02421    0.72735    1.000
    N4905    N        0.85956    0.12728    0.67497    1.000
    Si4906   Si       0.83088    0.10709    0.64462    1.000
    N4907    N        0.83445    0.10922    0.73825    1.000
    N4908    N        0.86782    0.03419    0.63961    1.000
    N4909    N        0.82957    0.23985    0.68506    1.000
    Si4910   Si       0.81950    0.17712    0.62086    1.000
    Si4911   Si       0.85093    0.23801    0.64324    1.000
    Si4912   Si       0.83502    0.21007    0.71511    1.000
    N4913    N        0.84720    0.19277    0.64719    1.000
    Si4914   Si       0.84080    0.10298    0.82379    1.000
    N4915    N        0.83894    0.07651    0.85842    1.000
    N4916    N        0.82918    0.03071    0.76234    1.000
    Si4917   Si       0.81677    0.07339    0.76024    1.000
    Si4918   Si       0.86276    0.04219    0.87122    1.000
    N4919    N        0.82278    0.14148    0.83755    1.000
    Si4920   Si       0.84569    0.23083    0.83869    1.000
    N4921    N        0.86078    0.16149    0.78521    1.000
    Si4922   Si       0.82206    0.16758    0.80363    1.000
    N4923    N        0.81681    0.20875    0.81203    1.000
    N4924    N        0.84157    0.23616    0.75195    1.000
    Si4925   Si       0.81454    0.24284    0.78488    1.000
    Si4926   Si       0.82468    0.06499    0.95848    1.000
    N4927    N        0.86077    0.11983    0.91343    1.000
    Si4928   Si       0.81946    0.12607    0.92482    1.000
    N4929    N        0.83673    0.01009    0.88031    1.000
    N4930    N        0.86813    0.05752    0.96845    1.000
    Si4931   Si       0.86438    0.25668    0.90468    1.000
    N4932    N        0.82570    0.16929    0.93058    1.000
    N4933    N        0.83870    0.22933    0.88253    1.000
    N4934    N        0.82635    0.20354    0.99300    1.000
    N4935    N        0.83691    0.29164    0.08080    1.000
    N4936    N        0.82386    0.33161    0.02242    1.000
    Si4937   Si       0.84927    0.32474    0.05488    1.000
    N4938    N        0.84091    0.36723    0.07534    1.000
    N4939    N        0.85013    0.27121    0.01487    1.000
    N4940    N        0.85757    0.38655    0.00247    1.000
    Si4941   Si       0.82987    0.38782    0.03698    1.000
    Si4942   Si       0.82853    0.42961    0.09310    1.000
    Si4943   Si       0.85042    0.49251    0.08402    1.000
    N4944    N        0.83150    0.43124    0.05039    1.000
    Si4945   Si       0.82401    0.46387    0.02220    1.000
    N4946    N        0.82932    0.50163    0.04298    1.000
    N4947    N        0.86892    0.42276    0.10972    1.000
    N4948    N        0.81722    0.47039    0.10341    1.000
    N4949    N        0.84319    0.29838    0.17699    1.000
    Si4950   Si       0.85074    0.27639    0.21403    1.000
    N4951    N        0.85112    0.36805    0.19551    1.000
    Si4952   Si       0.86638    0.33515    0.16849    1.000
    N4953    N        0.82486    0.47330    0.22522    1.000
    Si4954   Si       0.86598    0.46300    0.21419    1.000
    N4955    N        0.86849    0.42450    0.23691    1.000
    Si4956   Si       0.83443    0.29166    0.28313    1.000
    Si4957   Si       0.83721    0.33562    0.34225    1.000
    N4958    N        0.85995    0.31491    0.30949    1.000
    N4959    N        0.86550    0.37512    0.35248    1.000
    N4960    N        0.86254    0.29787    0.24948    1.000
    N4961    N        0.81235    0.36548    0.31771    1.000
    Si4962   Si       0.83389    0.39994    0.33599    1.000
    N4963    N        0.84574    0.42280    0.30235    1.000
    Si4964   Si       0.85738    0.46193    0.31617    1.000
    Si4965   Si       0.85121    0.39844    0.26451    1.000
    N4966    N        0.81671    0.48196    0.31986    1.000
    N4967    N        0.87172    0.45699    0.35755    1.000
    N4968    N        0.81757    0.27897    0.40477    1.000
    N4969    N        0.86315    0.31878    0.37658    1.000
    N4970    N        0.81836    0.35467    0.41286    1.000
    Si4971   Si       0.83846    0.31572    0.41229    1.000
    Si4972   Si       0.86165    0.29489    0.49182    1.000
    N4973    N        0.86062    0.31147    0.45175    1.000
    Si4974   Si       0.85115    0.38112    0.42972    1.000
    N4975    N        0.82764    0.46567    0.46321    1.000
    N4976    N        0.82741    0.48669    0.39991    1.000
    Si4977   Si       0.83950    0.44649    0.38550    1.000
    Si4978   Si       0.86114    0.43234    0.46474    1.000
    N4979    N        0.84088    0.39081    0.47072    1.000
    N4980    N        0.85400    0.42340    0.41820    1.000
    N4981    N        0.85210    0.32501    0.58755    1.000
    N4982    N        0.83763    0.32355    0.51474    1.000
    Si4983   Si       0.85668    0.34439    0.54722    1.000
    Si4984   Si       0.83018    0.31695    0.62266    1.000
    N4985    N        0.85277    0.25796    0.51013    1.000
    N4986    N        0.84174    0.38391    0.54010    1.000
    N4987    N        0.83850    0.44954    0.57451    1.000
    Si4988   Si       0.84840    0.49131    0.56271    1.000
    N4989    N        0.86054    0.43983    0.50871    1.000
    N4990    N        0.82543    0.49901    0.52760    1.000
    Si4991   Si       0.86196    0.42222    0.54674    1.000
    Si4992   Si       0.82504    0.43591    0.61373    1.000
    Si4993   Si       0.82055    0.46107    0.50625    1.000
    N4994    N        0.83424    0.39438    0.62028    1.000
    N4995    N        0.85230    0.33762    0.65396    1.000
    N4996    N        0.83404    0.36046    0.71892    1.000
    Si4997   Si       0.84227    0.32702    0.69527    1.000
    N4998    N        0.82642    0.27454    0.63173    1.000
    Si4999   Si       0.86885    0.37796    0.64082    1.000
    Si5000   Si       0.82127    0.50232    0.63276    1.000
    N5001    N        0.84024    0.46410    0.64346    1.000
    N5002    N        0.81886    0.42904    0.70344    1.000
    Si5003   Si       0.85210    0.44276    0.68085    1.000
    N5004    N        0.84579    0.34076    0.78684    1.000
    Si5005   Si       0.85327    0.37200    0.75776    1.000
    N5006    N        0.82169    0.32914    0.85162    1.000
    Si5007   Si       0.85859    0.30289    0.80449    1.000
    N5008    N        0.83849    0.26631    0.81298    1.000
    Si5009   Si       0.85969    0.32796    0.87066    1.000
    N5010    N        0.82772    0.39043    0.83319    1.000
    N5011    N        0.85493    0.41860    0.76970    1.000
    N5012    N        0.83968    0.49028    0.76518    1.000
    Si5013   Si       0.85875    0.40133    0.86031    1.000
    Si5014   Si       0.82226    0.41516    0.79807    1.000
    Si5015   Si       0.86717    0.45819    0.75304    1.000
    Si5016   Si       0.84478    0.31838    0.94102    1.000
    N5017    N        0.85673    0.29898    0.90287    1.000
    N5018    N        0.82003    0.34852    0.92228    1.000
    N5019    N        0.81622    0.28760    0.96084    1.000
    Si5020   Si       0.86800    0.49604    0.96681    1.000
    N5021    N        0.84875    0.46195    0.98639    1.000
    Si5022   Si       0.85230    0.41911    0.97322    1.000
    N5023    N        0.84603    0.42672    0.89468    1.000
    Si5024   Si       0.84361    0.58669    0.03340    1.000
    N5025    N        0.83403    0.61667    0.06216    1.000
    N5026    N        0.85392    0.52544    0.11219    1.000
    Si5027   Si       0.85624    0.63453    0.09407    1.000
    N5028    N        0.87311    0.55738    0.04551    1.000
    N5029    N        0.84999    0.60878    0.99622    1.000
    N5030    N        0.83138    0.67406    0.02525    1.000
    Si5031   Si       0.82678    0.71801    0.02203    1.000
    N5032    N        0.86598    0.72660    0.04732    1.000
    Si5033   Si       0.86704    0.75460    0.08624    1.000
    N5034    N        0.82974    0.75613    0.10648    1.000
    Si5035   Si       0.81709    0.54761    0.12085    1.000
    N5036    N        0.82085    0.62318    0.19813    1.000
    N5037    N        0.82705    0.57559    0.15254    1.000
    Si5038   Si       0.84228    0.61571    0.15975    1.000
    N5039    N        0.82118    0.54280    0.21439    1.000
    N5040    N        0.84522    0.72724    0.16881    1.000
    Si5041   Si       0.83337    0.70501    0.20385    1.000
    N5042    N        0.82740    0.72957    0.23895    1.000
    N5043    N        0.82622    0.64249    0.12737    1.000
    N5044    N        0.85993    0.67161    0.21625    1.000
    Si5045   Si       0.81285    0.74884    0.14745    1.000
    Si5046   Si       0.84103    0.63741    0.23296    1.000
    Si5047   Si       0.85799    0.57495    0.35387    1.000
    N5048    N        0.82316    0.55859    0.33327    1.000
    N5049    N        0.86452    0.61455    0.25889    1.000
    N5050    N        0.84568    0.51829    0.27282    1.000
    Si5051   Si       0.81862    0.52350    0.30753    1.000
    Si5052   Si       0.84758    0.68391    0.32993    1.000
    N5053    N        0.81478    0.68920    0.30252    1.000
    N5054    N        0.81433    0.75606    0.29468    1.000
    N5055    N        0.86951    0.72236    0.32703    1.000
    N5056    N        0.83854    0.60313    0.37984    1.000
    N5057    N        0.84226    0.54209    0.44639    1.000
    Si5058   Si       0.84376    0.57649    0.41624    1.000
    Si5059   Si       0.85814    0.51309    0.41715    1.000
    N5060    N        0.86816    0.54713    0.38772    1.000
    Si5061   Si       0.87125    0.56365    0.47298    1.000
    N5062    N        0.87177    0.59959    0.44203    1.000
    N5063    N        0.84168    0.67767    0.37476    1.000
    N5064    N        0.83809    0.66445    0.44582    1.000
    Si5065   Si       0.85923    0.68784    0.41484    1.000
    Si5066   Si       0.81975    0.64159    0.37438    1.000
    N5067    N        0.83866    0.58110    0.57121    1.000
    Si5068   Si       0.83500    0.60853    0.53474    1.000
    N5069    N        0.85412    0.58638    0.50428    1.000
    N5070    N        0.83484    0.51829    0.59347    1.000
    N5071    N        0.85305    0.64719    0.54291    1.000
    Si5072   Si       0.83372    0.68030    0.56480    1.000
    N5073    N        0.82355    0.72139    0.55508    1.000
    N5074    N        0.85641    0.67879    0.60161    1.000
    Si5075   Si       0.84472    0.75929    0.56825    1.000
    Si5076   Si       0.81543    0.61880    0.68130    1.000
    N5077    N        0.84897    0.59076    0.69492    1.000
    Si5078   Si       0.84380    0.54469    0.69804    1.000
    N5079    N        0.82988    0.55066    0.73952    1.000
    N5080    N        0.81669    0.62597    0.63407    1.000
    N5081    N        0.81611    0.52125    0.67273    1.000
    Si5082   Si       0.86133    0.59066    0.74031    1.000
    N5083    N        0.81735    0.65115    0.70858    1.000
    Si5084   Si       0.85579    0.64406    0.62489    1.000
    N5085    N        0.85242    0.74512    0.62648    1.000
    N5086    N        0.86528    0.65204    0.66664    1.000
    Si5087   Si       0.85178    0.72944    0.73828    1.000
    N5088    N        0.85644    0.71466    0.69830    1.000
    Si5089   Si       0.83238    0.68259    0.68186    1.000
    Si5090   Si       0.82693    0.65183    0.75077    1.000
    N5091    N        0.85593    0.54160    0.81610    1.000
    N5092    N        0.84346    0.61687    0.76947    1.000
    Si5093   Si       0.85637    0.53262    0.77141    1.000
    Si5094   Si       0.82126    0.55860    0.83633    1.000
    Si5095   Si       0.81431    0.62221    0.80175    1.000
    N5096    N        0.83058    0.63939    0.83727    1.000
    N5097    N        0.83791    0.69318    0.76235    1.000
    Si5098   Si       0.84038    0.72837    0.83561    1.000
    N5099    N        0.86948    0.69498    0.82561    1.000
    Si5100   Si       0.87036    0.65782    0.84616    1.000
    N5101    N        0.82808    0.58225    0.87442    1.000
    Si5102   Si       0.82606    0.62518    0.87857    1.000
    N5103    N        0.86133    0.58646    0.92989    1.000
    Si5104   Si       0.84683    0.55556    0.90224    1.000
    N5105    N        0.84333    0.53238    0.97053    1.000
    Si5106   Si       0.84189    0.57720    0.96668    1.000
    N5107    N        0.81739    0.52646    0.91266    1.000
    N5108    N        0.83313    0.74000    0.87410    1.000
    N5109    N        0.83676    0.66351    0.95159    1.000
    N5110    N        0.86547    0.64276    0.89031    1.000
    Si5111   Si       0.87101    0.67000    0.92574    1.000
    N5112    N        0.83514    0.73307    0.98312    1.000
    Si5113   Si       0.85065    0.65033    0.99086    1.000
    N5114    N        0.83973    0.85421    0.08563    1.000
    N5115    N        0.85123    0.84745    0.02066    1.000
    Si5116   Si       0.85577    0.80900    0.04363    1.000
    Si5117   Si       0.85826    0.87986    0.05258    1.000
    N5118    N        0.81347    0.80069    0.05669    1.000
    Si5119   Si       0.84665    0.88477    0.11754    1.000
    Si5120   Si       0.83738    0.93949    0.06880    1.000
    N5121    N        0.82291    0.90749    0.04572    1.000
    N5122    N        0.86351    0.96482    0.04533    1.000
    Si5123   Si       0.86651    0.93985    0.00773    1.000
    N5124    N        0.85511    0.78990    0.21408    1.000
    Si5125   Si       0.81808    0.80620    0.20007    1.000
    Si5126   Si       0.83532    0.87964    0.22167    1.000
    N5127    N        0.81197    0.84791    0.19980    1.000
    N5128    N        0.86030    0.99239    0.14067    1.000
    N5129    N        0.86888    0.89017    0.20060    1.000
    N5130    N        0.81424    0.95912    0.17308    1.000
    N5131    N        0.81442    0.97475    0.24023    1.000
    Si5132   Si       0.83847    0.99336    0.17952    1.000
    N5133    N        0.83801    0.86841    0.26455    1.000
    Si5134   Si       0.82505    0.80474    0.36087    1.000
    N5135    N        0.86319    0.79597    0.33611    1.000
    Si5136   Si       0.83601    0.77091    0.25102    1.000
    Si5137   Si       0.85464    0.76051    0.31291    1.000
    N5138    N        0.84871    0.95276    0.32182    1.000
    Si5139   Si       0.82497    0.97339    0.34943    1.000
    Si5140   Si       0.87025    0.82700    0.46265    1.000
    N5141    N        0.85500    0.78508    0.46228    1.000
    Si5142   Si       0.84152    0.86277    0.39994    1.000
    N5143    N        0.84307    0.85468    0.44289    1.000
    N5144    N        0.85215    0.79651    0.39587    1.000
    Si5145   Si       0.84888    0.76415    0.42363    1.000
    Si5146   Si       0.81424    0.87498    0.46696    1.000
    Si5147   Si       0.84734    0.76239    0.49631    1.000
    N5148    N        0.83075    0.99269    0.45271    1.000
    N5149    N        0.83214    0.90543    0.40159    1.000
    N5150    N        0.83336    0.90762    0.48785    1.000
    Si5151   Si       0.86359    0.93715    0.40022    1.000
    N5152    N        0.83989    0.97062    0.38899    1.000
    N5153    N        0.85239    0.78516    0.53339    1.000
    N5154    N        0.83608    0.84663    0.56460    1.000
    Si5155   Si       0.83368    0.82604    0.60290    1.000
    Si5156   Si       0.86559    0.82541    0.54156    1.000
    N5157    N        0.81969    0.78522    0.59365    1.000
    N5158    N        0.87319    0.81710    0.62235    1.000
    N5159    N        0.87085    0.84414    0.50354    1.000
    Si5160   Si       0.85631    0.91793    0.57211    1.000
    N5161    N        0.85485    0.96125    0.58289    1.000
    N5162    N        0.83478    0.97814    0.52090    1.000
    Si5163   Si       0.85749    0.99515    0.55444    1.000
    N5164    N        0.86295    0.89767    0.60967    1.000
    N5165    N        0.81772    0.91520    0.55032    1.000
    Si5166   Si       0.86759    0.88672    0.50271    1.000
    Si5167   Si       0.81463    0.93916    0.51313    1.000
    N5168    N        0.82438    0.78707    0.66063    1.000
    Si5169   Si       0.86441    0.78260    0.64802    1.000
    Si5170   Si       0.84652    0.86988    0.71348    1.000
    N5171    N        0.82490    0.76228    0.74653    1.000
    N5172    N        0.84555    0.89881    0.67898    1.000
    Si5173   Si       0.82833    0.89256    0.63910    1.000
    Si5174   Si       0.83350    0.96223    0.62041    1.000
    N5175    N        0.86591    0.96234    0.65009    1.000
    N5176    N        0.81275    0.99987    0.62891    1.000
    N5177    N        0.84692    0.86994    0.83034    1.000
    Si5178   Si       0.82478    0.78524    0.78487    1.000
    N5179    N        0.84333    0.82502    0.78105    1.000
    Si5180   Si       0.86426    0.83932    0.85744    1.000
    Si5181   Si       0.82188    0.86518    0.79262    1.000
    N5182    N        0.85484    0.76348    0.80998    1.000
    Si5183   Si       0.86020    0.90266    0.85359    1.000
    N5184    N        0.82946    0.93490    0.85549    1.000
    N5185    N        0.83088    0.95766    0.75448    1.000
    N5186    N        0.82471    0.88619    0.74651    1.000
    N5187    N        0.86868    0.87181    0.88807    1.000
    N5188    N        0.86610    0.83314    0.96062    1.000
    Si5189   Si       0.82841    0.83671    0.98508    1.000
    N5190    N        0.84717    0.80898    0.88248    1.000
    Si5191   Si       0.85356    0.86086    0.92779    1.000
    Si5192   Si       0.86089    0.76905    0.89803    1.000
    N5193    N        0.86528    0.76951    0.94136    1.000
    Si5194   Si       0.83146    0.92565    0.95007    1.000
    N5195    N        0.85560    0.89145    0.95899    1.000
    N5196    N        0.82954    0.94638    0.98671    1.000
    Si5197   Si       0.83222    0.96698    0.88568    1.000
    N5198    N        0.85131    0.94943    0.91901    1.000
    N5199    N        0.89869    0.07324    0.05641    1.000
    Si5200   Si       0.88687    0.05759    0.01174    1.000
    N5201    N        0.90494    0.01465    0.01270    1.000
    Si5202   Si       0.90950    0.03453    0.11608    1.000
    Si5203   Si       0.92562    0.10514    0.04312    1.000
    N5204    N        0.91225    0.09563    0.00098    1.000
    N5205    N        0.87238    0.05576    0.11929    1.000
    N5206    N        0.91653    0.14019    0.06602    1.000
    Si5207   Si       0.88744    0.17435    0.05570    1.000
    Si5208   Si       0.91543    0.23578    0.02916    1.000
    N5209    N        0.88794    0.20237    0.02185    1.000
    Si5210   Si       0.91661    0.15133    0.10871    1.000
    N5211    N        0.88635    0.18248    0.09897    1.000
    N5212    N        0.90339    0.25258    0.06803    1.000
    N5213    N        0.91279    0.11588    0.13027    1.000
    N5214    N        0.88903    0.08137    0.18665    1.000
    Si5215   Si       0.87932    0.09195    0.14525    1.000
    N5216    N        0.92034    0.03113    0.22187    1.000
    N5217    N        0.91991    0.01435    0.15448    1.000
    Si5218   Si       0.92575    0.09575    0.20326    1.000
    N5219    N        0.89321    0.19063    0.23325    1.000
    Si5220   Si       0.92743    0.20596    0.15379    1.000
    N5221    N        0.88809    0.19020    0.16386    1.000
    N5222    N        0.92130    0.13965    0.20123    1.000
    N5223    N        0.92222    0.24422    0.13728    1.000
    Si5224   Si       0.91219    0.22735    0.21736    1.000
    N5225    N        0.88181    0.25036    0.19668    1.000
    Si5226   Si       0.88273    0.16274    0.19813    1.000
    Si5227   Si       0.91068    0.05322    0.26003    1.000
    Si5228   Si       0.91965    0.12430    0.27359    1.000
    Si5229   Si       0.88992    0.09750    0.33671    1.000
    N5230    N        0.92474    0.10284    0.31206    1.000
    N5231    N        0.88719    0.01094    0.34565    1.000
    N5232    N        0.92807    0.02859    0.29340    1.000
    N5233    N        0.88686    0.19889    0.30670    1.000
    N5234    N        0.88771    0.14005    0.35118    1.000
    Si5235   Si       0.91183    0.17401    0.33514    1.000
    N5236    N        0.87912    0.13745    0.27314    1.000
    N5237    N        0.92309    0.20257    0.36681    1.000
    N5238    N        0.90368    0.07373    0.37052    1.000
    Si5239   Si       0.88468    0.03330    0.38063    1.000
    N5240    N        0.90260    0.01645    0.41978    1.000
    N5241    N        0.91588    0.12722    0.41243    1.000
    N5242    N        0.87818    0.02266    0.48458    1.000
    Si5243   Si       0.87906    0.13792    0.39294    1.000
    N5244    N        0.88033    0.23459    0.40577    1.000
    Si5245   Si       0.88399    0.20172    0.43423    1.000
    Si5246   Si       0.91083    0.24392    0.37678    1.000
    N5247    N        0.92336    0.19071    0.44858    1.000
    N5248    N        0.90838    0.06395    0.58675    1.000
    Si5249   Si       0.91300    0.09131    0.55300    1.000
    N5250    N        0.89535    0.07274    0.51772    1.000
    Si5251   Si       0.91316    0.03027    0.51613    1.000
    N5252    N        0.88915    0.12872    0.55717    1.000
    Si5253   Si       0.90950    0.16482    0.54506    1.000
    N5254    N        0.88251    0.19656    0.53962    1.000
    Si5255   Si       0.88099    0.22555    0.50769    1.000
    Si5256   Si       0.90495    0.25496    0.61316    1.000
    N5257    N        0.92303    0.23463    0.50547    1.000
    N5258    N        0.90275    0.12339    0.73702    1.000
    Si5259   Si       0.89574    0.04916    0.67366    1.000
    N5260    N        0.91531    0.08168    0.65604    1.000
    N5261    N        0.87557    0.06116    0.71058    1.000
    N5262    N        0.90854    0.00848    0.68195    1.000
    Si5263   Si       0.90852    0.21018    0.72670    1.000
    N5264    N        0.88986    0.25812    0.65353    1.000
    Si5265   Si       0.87520    0.16848    0.66956    1.000
    N5266    N        0.87601    0.19035    0.70681    1.000
    N5267    N        0.90514    0.25169    0.71916    1.000
    N5268    N        0.91131    0.16316    0.64569    1.000
    N5269    N        0.88987    0.03600    0.83618    1.000
    Si5270   Si       0.91084    0.06560    0.81447    1.000
    N5271    N        0.87915    0.09592    0.80413    1.000
    Si5272   Si       0.89027    0.13077    0.77903    1.000
    N5273    N        0.92244    0.15264    0.80271    1.000
    N5274    N        0.90295    0.21677    0.76953    1.000
    N5275    N        0.88380    0.20988    0.83395    1.000
    Si5276   Si       0.89399    0.18762    0.79963    1.000
    Si5277   Si       0.91944    0.22584    0.85679    1.000
    Si5278   Si       0.88132    0.25328    0.75383    1.000
    N5279    N        0.91513    0.13113    0.87221    1.000
    N5280    N        0.89269    0.05757    0.89941    1.000
    Si5281   Si       0.89845    0.04090    0.93973    1.000
    Si5282   Si       0.89822    0.10096    0.89974    1.000
    Si5283   Si       0.91619    0.12739    0.97251    1.000
    N5284    N        0.92397    0.10834    0.93444    1.000
    Si5285   Si       0.91038    0.22334    0.93218    1.000
    N5286    N        0.88056    0.15339    0.97142    1.000
    N5287    N        0.87783    0.25073    0.94742    1.000
    N5288    N        0.90496    0.24334    0.89391    1.000
    N5289    N        0.90387    0.18380    0.91726    1.000
    Si5290   Si       0.86952    0.16119    0.93031    1.000
    N5291    N        0.89128    0.33305    0.04115    1.000
    N5292    N        0.92028    0.37264    0.08806    1.000
    Si5293   Si       0.92635    0.33387    0.06766    1.000
    Si5294   Si       0.88577    0.35003    0.99992    1.000
    N5295    N        0.92205    0.26838    0.99861    1.000
    Si5296   Si       0.87724    0.38087    0.09914    1.000
    N5297    N        0.92659    0.30798    0.10237    1.000
    N5298    N        0.88771    0.48898    0.06174    1.000
    Si5299   Si       0.92326    0.47966    0.08199    1.000
    Si5300   Si       0.88820    0.26753    0.15744    1.000
    N5301    N        0.90273    0.30706    0.16454    1.000
    Si5302   Si       0.91852    0.33476    0.13512    1.000
    N5303    N        0.87837    0.35572    0.13259    1.000
    Si5304   Si       0.87838    0.40246    0.20104    1.000
    N5305    N        0.90394    0.47842    0.12087    1.000
    N5306    N        0.91893    0.38715    0.20626    1.000
    N5307    N        0.87696    0.43898    0.17830    1.000
    N5308    N        0.89059    0.49246    0.22963    1.000
    Si5309   Si       0.89535    0.44094    0.13947    1.000
    Si5310   Si       0.89875    0.30549    0.33006    1.000
    N5311    N        0.92137    0.31549    0.29211    1.000
    N5312    N        0.88495    0.36898    0.26364    1.000
    Si5313   Si       0.88562    0.32583    0.27238    1.000
    N5314    N        0.92340    0.32500    0.35825    1.000
    N5315    N        0.89419    0.26306    0.34162    1.000
    Si5316   Si       0.91459    0.46698    0.35850    1.000
    N5317    N        0.89197    0.47825    0.29786    1.000
    Si5318   Si       0.92101    0.39287    0.24950    1.000
    Si5319   Si       0.90100    0.33208    0.45472    1.000
    Si5320   Si       0.89556    0.35564    0.37762    1.000
    N5321    N        0.91507    0.36260    0.48599    1.000
    N5322    N        0.88869    0.36037    0.42180    1.000
    N5323    N        0.90509    0.29906    0.49279    1.000
    N5324    N        0.90612    0.42841    0.46021    1.000
    N5325    N        0.89340    0.49230    0.42943    1.000
    Si5326   Si       0.91993    0.45816    0.43328    1.000
    Si5327   Si       0.89574    0.32687    0.59133    1.000
    N5328    N        0.90211    0.33927    0.54919    1.000
    N5329    N        0.91886    0.29564    0.60776    1.000
    N5330    N        0.90199    0.36517    0.61446    1.000
    Si5331   Si       0.92802    0.33256    0.51525    1.000
    N5332    N        0.90240    0.41931    0.56134    1.000
    N5333    N        0.89003    0.50206    0.55430    1.000
    Si5334   Si       0.90146    0.28195    0.68848    1.000
    N5335    N        0.87769    0.30967    0.71143    1.000
    Si5336   Si       0.89969    0.31991    0.74713    1.000
    Si5337   Si       0.91815    0.43224    0.67368    1.000
    N5338    N        0.87500    0.46644    0.70906    1.000
    N5339    N        0.92278    0.47291    0.66064    1.000
    N5340    N        0.92806    0.42201    0.71759    1.000
    N5341    N        0.87878    0.41118    0.66782    1.000
    Si5342   Si       0.90310    0.49459    0.69143    1.000
    N5343    N        0.88473    0.28892    0.77394    1.000
    N5344    N        0.88332    0.31165    0.83690    1.000
    N5345    N        0.89813    0.36486    0.75029    1.000
    Si5346   Si       0.92443    0.30076    0.83490    1.000
    Si5347   Si       0.92679    0.42558    0.85758    1.000
    N5348    N        0.90006    0.49742    0.84520    1.000
    N5349    N        0.90171    0.47247    0.77524    1.000
    Si5350   Si       0.90308    0.46402    0.81829    1.000
    N5351    N        0.88581    0.42718    0.83850    1.000
    N5352    N        0.87892    0.36542    0.87790    1.000
    N5353    N        0.92260    0.37258    0.98991    1.000
    Si5354   Si       0.87963    0.27505    0.98413    1.000
    Si5355   Si       0.92269    0.35706    0.88374    1.000
    N5356    N        0.87514    0.31861    0.97184    1.000
    Si5357   Si       0.92287    0.39025    0.95095    1.000
    Si5358   Si       0.90261    0.50207    0.89058    1.000
    N5359    N        0.92139    0.44543    0.89508    1.000
    N5360    N        0.88025    0.48480    0.92539    1.000
    Si5361   Si       0.88256    0.44220    0.91411    1.000
    N5362    N        0.88748    0.41719    0.94770    1.000
    Si5363   Si       0.89617    0.57621    0.07839    1.000
    N5364    N        0.91730    0.54836    0.10560    1.000
    N5365    N        0.88054    0.60224    0.10910    1.000
    N5366    N        0.92245    0.60340    0.05952    1.000
    Si5367   Si       0.87556    0.51660    0.03046    1.000
    N5368    N        0.89082    0.66817    0.00347    1.000
    N5369    N        0.89571    0.73376    0.11190    1.000
    N5370    N        0.88736    0.65966    0.07509    1.000
    Si5371   Si       0.89634    0.74920    0.02490    1.000
    Si5372   Si       0.87345    0.68256    0.04191    1.000
    N5373    N        0.92964    0.75136    0.04979    1.000
    Si5374   Si       0.91157    0.61147    0.13937    1.000
    Si5375   Si       0.92328    0.51533    0.20894    1.000
    Si5376   Si       0.89350    0.52157    0.13052    1.000
    N5377    N        0.90143    0.52354    0.17232    1.000
    N5378    N        0.88286    0.62943    0.16663    1.000
    N5379    N        0.92853    0.65706    0.21942    1.000
    Si5380   Si       0.89421    0.66435    0.19189    1.000
    Si5381   Si       0.88741    0.72981    0.15591    1.000
    N5382    N        0.91089    0.69757    0.17242    1.000
    N5383    N        0.88823    0.59339    0.32979    1.000
    N5384    N        0.90928    0.53975    0.28492    1.000
    Si5385   Si       0.88957    0.61918    0.29260    1.000
    N5386    N        0.92052    0.51060    0.35693    1.000
    Si5387   Si       0.93073    0.59571    0.34196    1.000
    N5388    N        0.92917    0.60845    0.27436    1.000
    Si5389   Si       0.93177    0.52300    0.31713    1.000
    Si5390   Si       0.88574    0.50929    0.26815    1.000
    N5391    N        0.87695    0.65902    0.31107    1.000
    Si5392   Si       0.90178    0.69578    0.31115    1.000
    N5393    N        0.91729    0.71399    0.27335    1.000
    Si5394   Si       0.91528    0.54355    0.38605    1.000
    N5395    N        0.92338    0.58541    0.38418    1.000
    N5396    N        0.90272    0.53631    0.48561    1.000
    Si5397   Si       0.92375    0.51414    0.45496    1.000
    N5398    N        0.89515    0.66361    0.41626    1.000
    Si5399   Si       0.87675    0.64006    0.45014    1.000
    N5400    N        0.87340    0.72774    0.42750    1.000
    Si5401   Si       0.90378    0.72689    0.46153    1.000
    N5402    N        0.89512    0.64452    0.48654    1.000
    N5403    N        0.90678    0.56249    0.55753    1.000
    Si5404   Si       0.91090    0.53208    0.52726    1.000
    N5405    N        0.88584    0.61587    0.61138    1.000
    Si5406   Si       0.90604    0.52735    0.58716    1.000
    Si5407   Si       0.87692    0.57925    0.59010    1.000
    N5408    N        0.92719    0.63301    0.55488    1.000
    N5409    N        0.88963    0.54892    0.61962    1.000
    Si5410   Si       0.89501    0.65096    0.52899    1.000
    Si5411   Si       0.90780    0.72998    0.53602    1.000
    N5412    N        0.88595    0.73683    0.57100    1.000
    N5413    N        0.91989    0.68814    0.52904    1.000
    Si5414   Si       0.87868    0.71478    0.60794    1.000
    N5415    N        0.88212    0.73362    0.49997    1.000
    Si5416   Si       0.92746    0.61897    0.62571    1.000
    N5417    N        0.91631    0.59981    0.66606    1.000
    N5418    N        0.88419    0.53388    0.68709    1.000
    Si5419   Si       0.88273    0.61836    0.68715    1.000
    Si5420   Si       0.90809    0.55663    0.65788    1.000
    N5421    N        0.89544    0.61796    0.72816    1.000
    Si5422   Si       0.89202    0.72654    0.67839    1.000
    N5423    N        0.92608    0.71528    0.70428    1.000
    N5424    N        0.90687    0.71242    0.63925    1.000
    Si5425   Si       0.92800    0.71359    0.74589    1.000
    Si5426   Si       0.89227    0.54113    0.83927    1.000
    N5427    N        0.88785    0.55868    0.75869    1.000
    N5428    N        0.92581    0.57179    0.84105    1.000
    Si5429   Si       0.93118    0.56710    0.76386    1.000
    N5430    N        0.91163    0.64473    0.84067    1.000
    N5431    N        0.91246    0.67430    0.76383    1.000
    N5432    N        0.89023    0.73059    0.76371    1.000
    Si5433   Si       0.87722    0.69353    0.78246    1.000
    Si5434   Si       0.92829    0.63737    0.75120    1.000
    N5435    N        0.90039    0.50537    0.99581    1.000
    N5436    N        0.88234    0.54121    0.88246    1.000
    Si5437   Si       0.89040    0.61354    0.91402    1.000
    N5438    N        0.92695    0.58970    0.91352    1.000
    Si5439   Si       0.92098    0.72518    0.90111    1.000
    N5440    N        0.90636    0.73763    0.98491    1.000
    N5441    N        0.90275    0.64608    0.94166    1.000
    N5442    N        0.88835    0.70863    0.92399    1.000
    Si5443   Si       0.92328    0.65210    0.97927    1.000
    Si5444   Si       0.87158    0.73090    0.95919    1.000
    N5445    N        0.90232    0.86060    0.07180    1.000
    Si5446   Si       0.88785    0.83352    0.10429    1.000
    N5447    N        0.87718    0.79763    0.08076    1.000
    N5448    N        0.87513    0.78636    0.01119    1.000
    N5449    N        0.88037    0.90166    0.02356    1.000
    Si5450   Si       0.91080    0.90172    0.08823    1.000
    N5451    N        0.90391    0.00460    0.08566    1.000
    Si5452   Si       0.88103    0.00461    0.04972    1.000
    N5453    N        0.86726    0.91420    0.09320    1.000
    N5454    N        0.87667    0.86031    0.13810    1.000
    Si5455   Si       0.89431    0.79303    0.19948    1.000
    N5456    N        0.90786    0.83480    0.19971    1.000
    Si5457   Si       0.89786    0.86932    0.17509    1.000
    N5458    N        0.90623    0.76693    0.16788    1.000
    N5459    N        0.92446    0.78136    0.23068    1.000
    N5460    N        0.92526    0.82185    0.12700    1.000
    N5461    N        0.88418    0.96394    0.19486    1.000
    Si5462   Si       0.89535    0.99352    0.22584    1.000
    Si5463   Si       0.89902    0.97771    0.15426    1.000
    N5464    N        0.92461    0.90367    0.17956    1.000
    Si5465   Si       0.89930    0.92362    0.21076    1.000
    N5466    N        0.92541    0.95238    0.13032    1.000
    Si5467   Si       0.90516    0.86685    0.34479    1.000
    N5468    N        0.90346    0.83824    0.27250    1.000
    Si5469   Si       0.89922    0.80586    0.30443    1.000
    N5470    N        0.91970    0.82654    0.33903    1.000
    Si5471   Si       0.88071    0.87553    0.27366    1.000
    N5472    N        0.87408    0.77420    0.27726    1.000
    Si5473   Si       0.91435    0.75660    0.26704    1.000
    Si5474   Si       0.88790    0.81115    0.37079    1.000
    N5475    N        0.88475    0.89070    0.31462    1.000
    Si5476   Si       0.88603    0.93182    0.32630    1.000
    N5477    N        0.91535    0.95536    0.30604    1.000
    Si5478   Si       0.89920    0.99789    0.30614    1.000
    N5479    N        0.90075    0.90952    0.25322    1.000
    N5480    N        0.87882    0.99563    0.26738    1.000
    N5481    N        0.89503    0.92924    0.36976    1.000
    N5482    N        0.87768    0.85421    0.37643    1.000
    N5483    N        0.91025    0.83175    0.44694    1.000
    N5484    N        0.92017    0.79105    0.39216    1.000
    N5485    N        0.92772    0.76418    0.46164    1.000
    Si5486   Si       0.92849    0.86881    0.45645    1.000
    Si5487   Si       0.93394    0.79856    0.43256    1.000
    N5488    N        0.88003    0.95312    0.43864    1.000
    N5489    N        0.92540    0.89742    0.42293    1.000
    N5490    N        0.90411    0.89802    0.48239    1.000
    Si5491   Si       0.91195    0.92810    0.45186    1.000
    Si5492   Si       0.87376    0.99523    0.44984    1.000
    N5493    N        0.90401    0.81738    0.56368    1.000
    Si5494   Si       0.91130    0.82579    0.60556    1.000
    N5495    N        0.88156    0.90152    0.54241    1.000
    N5496    N        0.91726    0.99310    0.60893    1.000
    Si5497   Si       0.92022    0.90814    0.52327    1.000
    Si5498   Si       0.92485    0.96616    0.57111    1.000
    N5499    N        0.90227    0.00272    0.54971    1.000
    N5500    N        0.92352    0.92576    0.58944    1.000
    N5501    N        0.93102    0.94865    0.52713    1.000
    Si5502   Si       0.90496    0.90065    0.61948    1.000
    N5503    N        0.88461    0.86218    0.73399    1.000
    N5504    N        0.89529    0.77048    0.67423    1.000
    Si5505   Si       0.87575    0.92962    0.67651    1.000
    Si5506   Si       0.92458    0.97768    0.70739    1.000
    N5507    N        0.90957    0.90698    0.66221    1.000
    N5508    N        0.89221    0.94898    0.71159    1.000
    Si5509   Si       0.89188    0.99593    0.64444    1.000
    N5510    N        0.88498    0.99870    0.75068    1.000
    N5511    N        0.90316    0.82263    0.84622    1.000
    N5512    N        0.90340    0.79703    0.76082    1.000
    N5513    N        0.91187    0.86160    0.79089    1.000
    Si5514   Si       0.88525    0.83370    0.76701    1.000
    Si5515   Si       0.92347    0.78615    0.85618    1.000
    Si5516   Si       0.89254    0.76681    0.79034    1.000
    Si5517   Si       0.92970    0.85334    0.82832    1.000
    N5518    N        0.92665    0.76361    0.81810    1.000
    Si5519   Si       0.90886    0.89156    0.75830    1.000
    N5520    N        0.89097    0.92723    0.77694    1.000
    N5521    N        0.89913    0.91758    0.84588    1.000
    Si5522   Si       0.91684    0.93597    0.81139    1.000
    N5523    N        0.91840    0.97924    0.80970    1.000
    Si5524   Si       0.91376    0.00200    0.84604    1.000
    Si5525   Si       0.92113    0.00426    0.77403    1.000
    Si5526   Si       0.87310    0.95672    0.75112    1.000
    Si5527   Si       0.88603    0.79581    0.96875    1.000
    N5528    N        0.91952    0.87025    0.97583    1.000
    Si5529   Si       0.87874    0.87170    0.98981    1.000
    N5530    N        0.92617    0.80235    0.95135    1.000
    N5531    N        0.89908    0.75805    0.88111    1.000
    Si5532   Si       0.92481    0.91378    0.96103    1.000
    N5533    N        0.91597    0.92493    0.91899    1.000
    N5534    N        0.90327    0.94432    0.98254    1.000
    Si5535   Si       0.91317    0.98665    0.98108    1.000
    Si5536   Si       0.92711    0.91387    0.87817    1.000
    N5537    N        0.89405    0.99796    0.94278    1.000
    N5538    N        0.89697    0.98021    0.87830    1.000
    Si5539   Si       0.89197    0.96179    0.91745    1.000
    N5540    N        0.96978    0.10973    0.03864    1.000
    N5541    N        0.98021    0.11880    0.11338    1.000
    N5542    N        0.94609    0.05749    0.11082    1.000
    Si5543   Si       0.97784    0.03447    0.09556    1.000
    Si5544   Si       0.98317    0.12712    0.99983    1.000
    N5545    N        0.95402    0.21371    0.02844    1.000
    N5546    N        0.96936    0.24855    0.09024    1.000
    Si5547   Si       0.98444    0.21744    0.06076    1.000
    Si5548   Si       0.98829    0.16129    0.11966    1.000
    Si5549   Si       0.95259    0.09386    0.13472    1.000
    N5550    N        0.95803    0.07935    0.17610    1.000
    Si5551   Si       0.94323    0.03512    0.18577    1.000
    N5552    N        0.94688    0.17463    0.13196    1.000
    Si5553   Si       0.98797    0.21042    0.19105    1.000
    Si5554   Si       0.94881    0.16697    0.21975    1.000
    N5555    N        0.94287    0.20703    0.19594    1.000
    Si5556   Si       0.95997    0.11940    0.33306    1.000
    Si5557   Si       0.97021    0.02190    0.29377    1.000
    Si5558   Si       0.97429    0.09383    0.26363    1.000
    N5559    N        0.98693    0.11707    0.29897    1.000
    N5560    N        0.96724    0.09998    0.36990    1.000
    N5561    N        0.93197    0.09006    0.24714    1.000
    Si5562   Si       0.98002    0.16076    0.29180    1.000
    N5563    N        0.95512    0.16328    0.32970    1.000
    N5564    N        0.95057    0.15524    0.26264    1.000
    Si5565   Si       0.96687    0.18626    0.36740    1.000
    N5566    N        0.93309    0.25398    0.24517    1.000
    N5567    N        0.94897    0.06569    0.43028    1.000
    Si5568   Si       0.94080    0.02427    0.43807    1.000
    Si5569   Si       0.93480    0.09016    0.39615    1.000
    N5570    N        0.97547    0.08859    0.49193    1.000
    N5571    N        0.93965    0.01425    0.48215    1.000
    Si5572   Si       0.98515    0.07435    0.45348    1.000
    Si5573   Si       0.94290    0.15496    0.43079    1.000
    Si5574   Si       0.94462    0.19963    0.48746    1.000
    N5575    N        0.98801    0.21083    0.48861    1.000
    N5576    N        0.97169    0.14483    0.46071    1.000
    N5577    N        0.97326    0.16142    0.40059    1.000
    N5578    N        0.95212    0.11110    0.54648    1.000
    N5579    N        0.94850    0.04339    0.54141    1.000
    N5580    N        0.96347    0.04222    0.60915    1.000
    Si5581   Si       0.97810    0.07503    0.53264    1.000
    N5582    N        0.95486    0.11501    0.61542    1.000
    Si5583   Si       0.93732    0.07332    0.61846    1.000
    Si5584   Si       0.93647    0.02276    0.57882    1.000
    Si5585   Si       0.96677    0.13236    0.50411    1.000
    Si5586   Si       0.96697    0.13612    0.58001    1.000
    Si5587   Si       0.97835    0.24987    0.60459    1.000
    N5588    N        0.93987    0.17137    0.57971    1.000
    N5589    N        0.94012    0.23035    0.61507    1.000
    N5590    N        0.93590    0.16534    0.51081    1.000
    Si5591   Si       0.94020    0.18670    0.62115    1.000
    N5592    N        0.98159    0.06397    0.73317    1.000
    N5593    N        0.95404    0.13041    0.68464    1.000
    Si5594   Si       0.92779    0.12378    0.65135    1.000
    Si5595   Si       0.93949    0.14134    0.72209    1.000
    N5596    N        0.94325    0.18642    0.71911    1.000
    N5597    N        0.98016    0.17655    0.63725    1.000
    Si5598   Si       0.98314    0.20219    0.72810    1.000
    N5599    N        0.94481    0.08236    0.83721    1.000
    Si5600   Si       0.97339    0.05647    0.85871    1.000
    Si5601   Si       0.97561    0.05381    0.77619    1.000
    N5602    N        0.95082    0.01782    0.86140    1.000
    Si5603   Si       0.94135    0.12697    0.83646    1.000
    N5604    N        0.93369    0.04600    0.78366    1.000
    N5605    N        0.96631    0.13593    0.75544    1.000
    Si5606   Si       0.96329    0.16343    0.78648    1.000
    N5607    N        0.94989    0.19523    0.86343    1.000
    N5608    N        0.98034    0.14763    0.82549    1.000
    N5609    N        0.98446    0.19876    0.77251    1.000
    N5610    N        0.98429    0.09397    0.96954    1.000
    Si5611   Si       0.95722    0.08049    0.93746    1.000
    N5612    N        0.94027    0.04152    0.94500    1.000
    N5613    N        0.97731    0.07902    0.89864    1.000
    Si5614   Si       0.97366    0.01165    0.94691    1.000
    N5615    N        0.97503    0.14763    0.89412    1.000
    Si5616   Si       0.96017    0.19490    0.98938    1.000
    N5617    N        0.94368    0.22192    0.95869    1.000
    N5618    N        0.94962    0.15342    0.98508    1.000
    Si5619   Si       0.93448    0.16464    0.89317    1.000
    N5620    N        0.96231    0.34420    0.04562    1.000
    Si5621   Si       0.96127    0.36306    0.00565    1.000
    Si5622   Si       0.93074    0.26504    0.09956    1.000
    Si5623   Si       0.94729    0.40666    0.09772    1.000
    Si5624   Si       0.97059    0.43133    0.04268    1.000
    N5625    N        0.95039    0.45375    0.00860    1.000
    N5626    N        0.93848    0.44032    0.07109    1.000
    N5627    N        0.98401    0.39917    0.01101    1.000
    N5628    N        0.95867    0.50452    0.07756    1.000
    N5629    N        0.98715    0.40006    0.08002    1.000
    N5630    N        0.95400    0.35522    0.15148    1.000
    N5631    N        0.98006    0.28486    0.14845    1.000
    N5632    N        0.97428    0.31163    0.24657    1.000
    Si5633   Si       0.97345    0.26594    0.24627    1.000
    N5634    N        0.93144    0.41563    0.13721    1.000
    Si5635   Si       0.96620    0.44731    0.22454    1.000
    N5636    N        0.95771    0.48918    0.20887    1.000
    Si5637   Si       0.94672    0.39236    0.17210    1.000
    N5638    N        0.97376    0.42274    0.19027    1.000
    Si5639   Si       0.96780    0.32343    0.35184    1.000
    Si5640   Si       0.95840    0.33474    0.27974    1.000
    N5641    N        0.95880    0.37551    0.26442    1.000
    N5642    N        0.98314    0.34062    0.31427    1.000
    N5643    N        0.98965    0.28460    0.34484    1.000
    N5644    N        0.95544    0.49142    0.29437    1.000
    N5645    N        0.93366    0.43607    0.25288    1.000
    N5646    N        0.93290    0.43890    0.33114    1.000
    Si5647   Si       0.95183    0.41920    0.36620    1.000
    Si5648   Si       0.93027    0.45552    0.29066    1.000
    Si5649   Si       0.98565    0.25845    0.37820    1.000
    N5650    N        0.98222    0.34140    0.38955    1.000
    N5651    N        0.96421    0.26418    0.46194    1.000
    Si5652   Si       0.95147    0.36131    0.41222    1.000
    N5653    N        0.94082    0.32353    0.43367    1.000
    Si5654   Si       0.96205    0.28719    0.42619    1.000
    N5655    N        0.94557    0.26314    0.39314    1.000
    N5656    N        0.93231    0.38369    0.37947    1.000
    N5657    N        0.95191    0.47965    0.45635    1.000
    Si5658   Si       0.93581    0.39980    0.47347    1.000
    N5659    N        0.96326    0.39238    0.43893    1.000
    N5660    N        0.93424    0.45080    0.39386    1.000
    N5661    N        0.96195    0.30680    0.51826    1.000
    Si5662   Si       0.94293    0.38188    0.61707    1.000
    Si5663   Si       0.93992    0.27396    0.49569    1.000
    N5664    N        0.98817    0.26485    0.56394    1.000
    Si5665   Si       0.96619    0.50177    0.56143    1.000
    N5666    N        0.96479    0.39860    0.58245    1.000
    N5667    N        0.96530    0.45812    0.55361    1.000
    Si5668   Si       0.94333    0.42127    0.55149    1.000
    N5669    N        0.95926    0.41391    0.50818    1.000
    Si5670   Si       0.99151    0.44128    0.52078    1.000
    N5671    N        0.96517    0.34543    0.62644    1.000
    N5672    N        0.96124    0.36850    0.71292    1.000
    Si5673   Si       0.95063    0.30633    0.63480    1.000
    Si5674   Si       0.95856    0.32554    0.70652    1.000
    N5675    N        0.98184    0.27862    0.63667    1.000
    N5676    N        0.93552    0.30779    0.67589    1.000
    N5677    N        0.94158    0.31222    0.74458    1.000
    Si5678   Si       0.95344    0.49613    0.63888    1.000
    Si5679   Si       0.97309    0.39689    0.68237    1.000
    N5680    N        0.93955    0.50525    0.71593    1.000
    N5681    N        0.94542    0.40612    0.65238    1.000
    Si5682   Si       0.95939    0.36773    0.82016    1.000
    Si5683   Si       0.96987    0.30963    0.77726    1.000
    N5684    N        0.94776    0.32741    0.81008    1.000
    N5685    N        0.98429    0.27043    0.78741    1.000
    Si5686   Si       0.98094    0.25979    0.83010    1.000
    N5687    N        0.94268    0.38415    0.85765    1.000
    N5688    N        0.93798    0.25950    0.83637    1.000
    N5689    N        0.98645    0.50675    0.83561    1.000
    N5690    N        0.95113    0.39498    0.78645    1.000
    N5691    N        0.97339    0.47197    0.76767    1.000
    N5692    N        0.94477    0.45079    0.82824    1.000
    Si5693   Si       0.97556    0.43224    0.79259    1.000
    Si5694   Si       0.93761    0.49144    0.75732    1.000
    Si5695   Si       0.98548    0.46380    0.85046    1.000
    Si5696   Si       0.93681    0.38673    0.74552    1.000
    N5697    N        0.93196    0.35583    0.92614    1.000
    N5698    N        0.93682    0.31519    0.87487    1.000
    Si5699   Si       0.96523    0.33200    0.94068    1.000
    Si5700   Si       0.97195    0.29646    0.89306    1.000
    N5701    N        0.95706    0.28909    0.93380    1.000
    Si5702   Si       0.95434    0.26332    0.96867    1.000
    N5703    N        0.98352    0.33665    0.97993    1.000
    Si5704   Si       0.95508    0.45285    0.92082    1.000
    N5705    N        0.95707    0.41826    0.94760    1.000
    N5706    N        0.98789    0.45765    0.89273    1.000
    Si5707   Si       0.98112    0.43160    0.98083    1.000
    Si5708   Si       0.94122    0.49141    0.98924    1.000
    N5709    N        0.95543    0.48427    0.95035    1.000
    Si5710   Si       0.94904    0.60621    0.02575    1.000
    Si5711   Si       0.96071    0.53526    0.10619    1.000
    N5712    N        0.97031    0.51421    0.01215    1.000
    N5713    N        0.98212    0.57111    0.09542    1.000
    N5714    N        0.98344    0.57917    0.02571    1.000
    N5715    N        0.94736    0.63189    0.11637    1.000
    N5716    N        0.95878    0.64806    0.03599    1.000
    N5717    N        0.94647    0.69046    0.09022    1.000
    Si5718   Si       0.98249    0.67732    0.01593    1.000
    Si5719   Si       0.93390    0.73246    0.08895    1.000
    N5720    N        0.96018    0.75696    0.11459    1.000
    N5721    N        0.97427    0.74927    0.99606    1.000
    Si5722   Si       0.96910    0.67112    0.12256    1.000
    Si5723   Si       0.93097    0.64787    0.07614    1.000
    Si5724   Si       0.96164    0.57661    0.19818    1.000
    N5725    N        0.97624    0.60791    0.22298    1.000
    Si5726   Si       0.97387    0.59765    0.12980    1.000
    N5727    N        0.94386    0.59015    0.16049    1.000
    N5728    N        0.97050    0.51551    0.14320    1.000
    N5729    N        0.93505    0.55410    0.22604    1.000
    Si5730   Si       0.98653    0.51031    0.18192    1.000
    Si5731   Si       0.94752    0.68549    0.19393    1.000
    N5732    N        0.97678    0.67691    0.16440    1.000
    N5733    N        0.96279    0.71960    0.21445    1.000
    Si5734   Si       0.95120    0.63352    0.24682    1.000
    N5735    N        0.95112    0.56099    0.32646    1.000
    Si5736   Si       0.93853    0.56716    0.26836    1.000
    N5737    N        0.98394    0.56379    0.27015    1.000
    N5738    N        0.95700    0.62870    0.35520    1.000
    Si5739   Si       0.96970    0.66937    0.35148    1.000
    N5740    N        0.97596    0.66134    0.27151    1.000
    Si5741   Si       0.95654    0.69676    0.28468    1.000
    N5742    N        0.94142    0.68950    0.32569    1.000
    N5743    N        0.98234    0.73140    0.27867    1.000
    Si5744   Si       0.95804    0.61010    0.39574    1.000
    Si5745   Si       0.97924    0.54844    0.43500    1.000
    N5746    N        0.94004    0.53581    0.42157    1.000
    N5747    N        0.97922    0.57418    0.47031    1.000
    Si5748   Si       0.98277    0.61599    0.46025    1.000
    N5749    N        0.95581    0.63339    0.43073    1.000
    N5750    N        0.98043    0.64558    0.49314    1.000
    Si5751   Si       0.93859    0.67274    0.42141    1.000
    N5752    N        0.96787    0.68758    0.39199    1.000
    N5753    N        0.93409    0.69534    0.45847    1.000
    Si5754   Si       0.94869    0.67766    0.49602    1.000
    N5755    N        0.97234    0.58875    0.53693    1.000
    N5756    N        0.95433    0.52627    0.52629    1.000
    N5757    N        0.95153    0.58889    0.60482    1.000
    Si5758   Si       0.93875    0.59293    0.56404    1.000
    Si5759   Si       0.98181    0.55676    0.51141    1.000
    N5760    N        0.94352    0.50754    0.59735    1.000
    Si5761   Si       0.94713    0.66739    0.57116    1.000
    N5762    N        0.95198    0.71050    0.58008    1.000
    Si5763   Si       0.97258    0.72498    0.54642    1.000
    N5764    N        0.97825    0.71025    0.50716    1.000
    N5765    N        0.94186    0.65883    0.61552    1.000
    N5766    N        0.98888    0.65914    0.55807    1.000
    N5767    N        0.94987    0.57091    0.72276    1.000
    N5768    N        0.98075    0.60076    0.66654    1.000
    N5769    N        0.94916    0.53863    0.65794    1.000
    Si5770   Si       0.96347    0.53729    0.70030    1.000
    Si5771   Si       0.97369    0.56862    0.63546    1.000
    Si5772   Si       0.95023    0.60465    0.69653    1.000
    Si5773   Si       0.94541    0.70241    0.62271    1.000
    Si5774   Si       0.96487    0.72843    0.68851    1.000
    N5775    N        0.95522    0.64264    0.71822    1.000
    N5776    N        0.97498    0.71982    0.64677    1.000
    N5777    N        0.94731    0.53011    0.78072    1.000
    Si5778   Si       0.93777    0.61077    0.82412    1.000
    N5779    N        0.93726    0.60761    0.78157    1.000
    Si5780   Si       0.98416    0.50989    0.79332    1.000
    N5781    N        0.97348    0.63829    0.83384    1.000
    N5782    N        0.95983    0.74039    0.75882    1.000
    N5783    N        0.95952    0.69723    0.81285    1.000
    Si5784   Si       0.96045    0.74013    0.80232    1.000
    Si5785   Si       0.94613    0.67331    0.84516    1.000
    Si5786   Si       0.94025    0.56177    0.88406    1.000
    Si5787   Si       0.95302    0.59064    0.95035    1.000
    Si5788   Si       0.97120    0.52040    0.93116    1.000
    N5789    N        0.96828    0.55267    0.95817    1.000
    N5790    N        0.93917    0.52124    0.90017    1.000
    N5791    N        0.93686    0.61022    0.98627    1.000
    N5792    N        0.98592    0.61714    0.93752    1.000
    N5793    N        0.98439    0.56414    0.88651    1.000
    N5794    N        0.95648    0.68246    0.97424    1.000
    N5795    N        0.95286    0.73993    0.92824    1.000
    Si5796   Si       0.98237    0.71499    0.90342    1.000
    N5797    N        0.94891    0.69852    0.88091    1.000
    Si5798   Si       0.94716    0.72724    0.97055    1.000
    Si5799   Si       0.99042    0.65904    0.95143    1.000
    N5800    N        0.96514    0.82997    0.08087    1.000
    Si5801   Si       0.95756    0.77568    0.02889    1.000
    Si5802   Si       0.93738    0.84508    0.05092    1.000
    N5803    N        0.93834    0.81607    0.01956    1.000
    Si5804   Si       0.96016    0.84746    0.11910    1.000
    N5805    N        0.95761    0.88032    0.03457    1.000
    N5806    N        0.97003    0.99388    0.08306    1.000
    Si5807   Si       0.96753    0.91729    0.05659    1.000
    Si5808   Si       0.93260    0.97184    0.09119    1.000
    N5809    N        0.93008    0.93610    0.06742    1.000
    Si5810   Si       0.98184    0.88389    0.99615    1.000
    N5811    N        0.96537    0.79460    0.17519    1.000
    Si5812   Si       0.93900    0.78219    0.14328    1.000
    N5813    N        0.96984    0.83691    0.23429    1.000
    Si5814   Si       0.95602    0.76257    0.20774    1.000
    Si5815   Si       0.92716    0.82586    0.23908    1.000
    N5816    N        0.97379    0.00691    0.19270    1.000
    N5817    N        0.94428    0.88794    0.11366    1.000
    Si5818   Si       0.94892    0.91881    0.14549    1.000
    Si5819   Si       0.97154    0.98162    0.22855    1.000
    N5820    N        0.93156    0.96376    0.23462    1.000
    Si5821   Si       0.94659    0.79574    0.35731    1.000
    N5822    N        0.93301    0.77565    0.30073    1.000
    Si5823   Si       0.97305    0.76142    0.30645    1.000
    N5824    N        0.98696    0.81614    0.36618    1.000
    N5825    N        0.96889    0.75855    0.35010    1.000
    N5826    N        0.94316    0.89080    0.34712    1.000
    N5827    N        0.96835    0.91839    0.27786    1.000
    Si5828   Si       0.97170    0.89532    0.31516    1.000
    N5829    N        0.98613    0.98850    0.26979    1.000
    Si5830   Si       0.93064    0.93720    0.26995    1.000
    N5831    N        0.97592    0.81229    0.43107    1.000
    N5832    N        0.96849    0.87801    0.47453    1.000
    Si5833   Si       0.95257    0.77436    0.49583    1.000
    N5834    N        0.99006    0.76784    0.47742    1.000
    Si5835   Si       0.94765    0.97217    0.49729    1.000
    N5836    N        0.96817    0.93967    0.39040    1.000
    Si5837   Si       0.97520    0.95953    0.42929    1.000
    Si5838   Si       0.93269    0.91308    0.38373    1.000
    N5839    N        0.97475    0.00154    0.42244    1.000
    N5840    N        0.94427    0.95452    0.45851    1.000
    N5841    N        0.95469    0.81723    0.50908    1.000
    Si5842   Si       0.94136    0.80114    0.54920    1.000
    N5843    N        0.97649    0.81478    0.57131    1.000
    Si5844   Si       0.97232    0.85595    0.51313    1.000
    Si5845   Si       0.97688    0.80108    0.61266    1.000
    N5846    N        0.93443    0.86693    0.61182    1.000
    N5847    N        0.94935    0.88064    0.54058    1.000
    N5848    N        0.94469    0.75763    0.53500    1.000
    Si5849   Si       0.95505    0.89539    0.58090    1.000
    N5850    N        0.96657    0.98424    0.57072    1.000
    N5851    N        0.98959    0.97233    0.50654    1.000
    N5852    N        0.93505    0.83320    0.67908    1.000
    N5853    N        0.93703    0.79520    0.62606    1.000
    N5854    N        0.96577    0.76987    0.69722    1.000
    Si5855   Si       0.95588    0.85875    0.65080    1.000
    Si5856   Si       0.98352    0.76928    0.73953    1.000
    Si5857   Si       0.93374    0.79151    0.67049    1.000
    N5858    N        0.95536    0.95409    0.68531    1.000
    N5859    N        0.97393    0.89177    0.67164    1.000
    Si5860   Si       0.94205    0.91233    0.69313    1.000
    N5861    N        0.94511    0.90034    0.73616    1.000
    N5862    N        0.96807    0.82781    0.82882    1.000
    N5863    N        0.94222    0.87319    0.86617    1.000
    N5864    N        0.98756    0.80757    0.76095    1.000
    N5865    N        0.95690    0.92193    0.80176    1.000
    Si5866   Si       0.97807    0.91216    0.76331    1.000
    N5867    N        0.95834    0.94221    0.86705    1.000
    Si5868   Si       0.98838    0.98855    0.74975    1.000
    Si5869   Si       0.98430    0.93066    0.83366    1.000
    N5870    N        0.94618    0.98439    0.74481    1.000
    Si5871   Si       0.96849    0.83890    0.87135    1.000
    N5872    N        0.98314    0.84674    0.97595    1.000
    N5873    N        0.95284    0.79989    0.88642    1.000
    Si5874   Si       0.95657    0.78483    0.92693    1.000
    Si5875   Si       0.94136    0.83441    0.97824    1.000
    Si5876   Si       0.97795    0.98281    0.87348    1.000
    N5877    N        0.96542    0.91625    0.97205    1.000
    Si5878   Si       0.98056    0.95391    0.98894    1.000
    N5879    N        0.95637    0.98636    0.97555    1.000
