# CIF file generated by openbabel 3.1.1, see https://openbabel.org
data_I
_chemical_name_common '3.01-61.aims'
_cell_length_a 39.877
_cell_length_b 39.877
_cell_length_c 39.877
_cell_angle_alpha 90
_cell_angle_beta 90
_cell_angle_gamma 90
loop_
    _atom_site_label
    _atom_site_type_symbol
    _atom_site_fract_x
    _atom_site_fract_y
    _atom_site_fract_z
    _atom_site_occupancy
    N0       N        0.03042    0.02332    0.09810    1.000
    Si1      Si       0.00405    0.05455    0.10947    1.000
    N2       N        0.03741    0.12624    0.09408    1.000
    Si3      Si       0.99353    0.12402    0.07673    1.000
    N4       N        0.04525    0.11133    0.02083    1.000
    Si5      Si       0.01488    0.00947    0.01863    1.000
    N6       N        0.01862    0.04694    0.99481    1.000
    Si7      Si       0.01560    0.14341    0.00741    1.000
    N8       N        0.99563    0.18968    0.00800    1.000
    N9       N        0.02910    0.23172    0.06123    1.000
    Si10     Si       0.03066    0.20957    0.02412    1.000
    N11      N        0.03085    0.19088    0.11990    1.000
    N12      N        0.04455    0.17229    0.04726    1.000
    Si13     Si       0.99774    0.25925    0.07439    1.000
    Si14     Si       0.99294    0.07155    0.22159    1.000
    N15      N        0.02650    0.09751    0.20820    1.000
    N16      N        0.99868    0.02684    0.22039    1.000
    N17      N        0.03022    0.07576    0.13768    1.000
    Si18     Si       0.01054    0.09581    0.16831    1.000
    N19      N        0.00409    0.25779    0.22271    1.000
    Si20     Si       0.01858    0.22309    0.24775    1.000
    Si21     Si       0.03352    0.24582    0.19065    1.000
    N22      N        0.99994    0.13681    0.15753    1.000
    Si23     Si       0.03299    0.15070    0.13273    1.000
    Si24     Si       0.02141    0.09819    0.29638    1.000
    N25      N        0.01053    0.06510    0.26384    1.000
    N26      N        0.01776    0.13285    0.26747    1.000
    N27      N        0.02339    0.13025    0.33386    1.000
    Si28     Si       0.02719    0.02620    0.25454    1.000
    Si29     Si       0.00762    0.01256    0.36660    1.000
    Si30     Si       0.02849    0.23624    0.31732    1.000
    N31      N        0.04263    0.19967    0.34006    1.000
    N32      N        0.98758    0.20009    0.26242    1.000
    Si33     Si       0.01336    0.10179    0.46928    1.000
    N34      N        0.03371    0.07488    0.44213    1.000
    Si35     Si       0.99446    0.06341    0.42238    1.000
    N36      N        0.99518    0.05365    0.38083    1.000
    N37      N        0.00930    0.24476    0.37706    1.000
    N38      N        0.04551    0.13217    0.47712    1.000
    N39      N        0.01934    0.19489    0.41810    1.000
    Si40     Si       0.01756    0.20156    0.37546    1.000
    Si41     Si       0.04021    0.24355    0.48626    1.000
    N42      N        0.02286    0.07501    0.58385    1.000
    Si43     Si       0.00296    0.06478    0.54634    1.000
    N44      N        0.00947    0.09381    0.51194    1.000
    N45      N        0.01917    0.02840    0.52701    1.000
    Si46     Si       0.99515    0.08878    0.61509    1.000
    Si47     Si       0.03319    0.12908    0.52208    1.000
    N48      N        0.02658    0.21617    0.51750    1.000
    N49      N        0.00091    0.15439    0.53612    1.000
    Si50     Si       0.99012    0.19369    0.51684    1.000
    N51      N        0.01406    0.12670    0.63012    1.000
    Si52     Si       0.02485    0.02201    0.73222    1.000
    N53      N        0.02906    0.02827    0.68960    1.000
    Si54     Si       0.01720    0.10661    0.66960    1.000
    Si55     Si       0.99218    0.03269    0.66662    1.000
    N56      N        0.99005    0.07481    0.65536    1.000
    N57      N        0.04115    0.20834    0.70350    1.000
    Si58     Si       0.01789    0.22665    0.66994    1.000
    N59      N        0.01529    0.19142    0.64448    1.000
    Si60     Si       0.03159    0.16733    0.71820    1.000
    N61      N        0.00558    0.13627    0.70032    1.000
    N62      N        0.02180    0.06806    0.81351    1.000
    Si63     Si       0.99449    0.05326    0.84460    1.000
    N64      N        0.99517    0.01487    0.86330    1.000
    N65      N        0.99257    0.04442    0.74997    1.000
    Si66     Si       0.98688    0.06836    0.78593    1.000
    N67      N        0.03339    0.23416    0.79289    1.000
    Si68     Si       0.03869    0.19202    0.78936    1.000
    N69      N        0.01487    0.17727    0.75643    1.000
    N70      N        0.03783    0.16548    0.82179    1.000
    Si71     Si       0.03852    0.16987    0.86640    1.000
    Si72     Si       0.02824    0.09617    0.89220    1.000
    N73      N        0.03494    0.06961    0.92837    1.000
    Si74     Si       0.00184    0.05662    0.95413    1.000
    N75      N        0.99161    0.08751    0.87401    1.000
    N76      N        0.00259    0.19424    0.87206    1.000
    Si77     Si       0.03944    0.15704    0.93946    1.000
    N78      N        0.00815    0.14198    0.96403    1.000
    Si79     Si       0.01073    0.21898    0.90639    1.000
    N80      N        0.03322    0.20117    0.93902    1.000
    N81      N        0.03444    0.25514    0.90051    1.000
    N82      N        0.00215    0.25566    0.97521    1.000
    Si83     Si       0.04015    0.23605    0.96098    1.000
    N84      N        0.03702    0.13992    0.89896    1.000
    N85      N        0.02190    0.29308    0.09134    1.000
    Si86     Si       0.00724    0.36362    0.09473    1.000
    N87      N        0.03704    0.35474    0.06311    1.000
    N88      N        0.03771    0.29225    0.02382    1.000
    Si89     Si       0.99712    0.28469    0.00658    1.000
    Si90     Si       0.04857    0.31024    0.06192    1.000
    N91      N        0.01802    0.47725    0.06797    1.000
    N92      N        0.02047    0.42035    0.02423    1.000
    Si93     Si       0.02850    0.46481    0.02543    1.000
    N94      N        0.00951    0.40680    0.08701    1.000
    Si95     Si       0.04036    0.39889    0.05651    1.000
    N96      N        0.02513    0.35071    0.13237    1.000
    Si97     Si       0.02471    0.30279    0.13598    1.000
    N98      N        0.02466    0.32014    0.18638    1.000
    N99      N        0.01960    0.26064    0.15305    1.000
    N100     N        0.04855    0.44862    0.18550    1.000
    Si101    Si       0.99215    0.40050    0.19805    1.000
    N102     N        0.02811    0.48987    0.14272    1.000
    Si103    Si       0.00917    0.46673    0.17476    1.000
    N104     N        0.03064    0.38829    0.21549    1.000
    Si105    Si       0.02303    0.30562    0.35636    1.000
    N106     N        0.03664    0.33847    0.32889    1.000
    N107     N        0.03900    0.32135    0.25868    1.000
    N108     N        0.04429    0.27660    0.32624    1.000
    Si109    Si       0.03971    0.38037    0.32041    1.000
    Si110    Si       0.04457    0.36612    0.25184    1.000
    N111     N        0.01974    0.38867    0.28017    1.000
    N112     N        0.02375    0.41153    0.34593    1.000
    N113     N        0.01319    0.49306    0.27074    1.000
    Si114    Si       0.99682    0.49644    0.31375    1.000
    N115     N        0.00847    0.31578    0.47048    1.000
    Si116    Si       0.02852    0.33221    0.43381    1.000
    N117     N        0.03200    0.30465    0.40096    1.000
    N118     N        0.99603    0.35982    0.42499    1.000
    Si119    Si       0.03151    0.26299    0.40897    1.000
    N120     N        0.01979    0.25268    0.44851    1.000
    Si121    Si       0.02140    0.45109    0.43624    1.000
    N122     N        0.03876    0.41800    0.41049    1.000
    N123     N        0.04278    0.48207    0.45932    1.000
    Si124    Si       0.99790    0.40032    0.41181    1.000
    N125     N        0.99934    0.48155    0.41261    1.000
    N126     N        0.03128    0.32488    0.53607    1.000
    Si127    Si       0.03982    0.36531    0.55098    1.000
    Si128    Si       0.01385    0.37721    0.61706    1.000
    Si129    Si       0.99374    0.31412    0.51295    1.000
    N130     N        0.00474    0.38979    0.54221    1.000
    N131     N        0.00681    0.45664    0.57119    1.000
    Si132    Si       0.00517    0.43289    0.53546    1.000
    Si133    Si       0.01161    0.45022    0.61416    1.000
    Si134    Si       0.00409    0.49743    0.56093    1.000
    N135     N        0.04049    0.43917    0.51171    1.000
    N136     N        0.03526    0.50670    0.53102    1.000
    N137     N        0.04476    0.30653    0.68600    1.000
    N138     N        0.03020    0.36214    0.65632    1.000
    Si139    Si       0.00927    0.32760    0.67448    1.000
    N140     N        0.03157    0.25805    0.63998    1.000
    Si141    Si       0.99094    0.50863    0.73293    1.000
    N142     N        0.98897    0.47907    0.63607    1.000
    N143     N        0.99053    0.41398    0.62469    1.000
    Si144    Si       0.03966    0.45558    0.71438    1.000
    N145     N        0.03354    0.41743    0.73835    1.000
    N146     N        0.00186    0.47704    0.70780    1.000
    N147     N        0.01062    0.35596    0.77746    1.000
    Si148    Si       0.00050    0.37573    0.85296    1.000
    N149     N        0.03989    0.36018    0.83836    1.000
    N150     N        0.04464    0.27937    0.75331    1.000
    Si151    Si       0.00851    0.26013    0.76918    1.000
    Si152    Si       0.04994    0.34822    0.79699    1.000
    N153     N        0.00042    0.41864    0.85370    1.000
    N154     N        0.02726    0.48100    0.83731    1.000
    Si155    Si       0.00021    0.39641    0.75833    1.000
    Si156    Si       0.99715    0.45134    0.82384    1.000
    N157     N        0.01213    0.50723    0.77340    1.000
    Si158    Si       0.00619    0.34931    0.93043    1.000
    N159     N        0.99665    0.30776    0.91727    1.000
    N160     N        0.01672    0.37362    0.89503    1.000
    Si161    Si       0.03970    0.29638    0.91834    1.000
    N162     N        0.04870    0.33824    0.93999    1.000
    N163     N        0.00248    0.47834    0.99531    1.000
    Si164    Si       0.01483    0.41942    0.89490    1.000
    N165     N        0.03840    0.50148    0.89905    1.000
    N166     N        0.01840    0.54834    0.05882    1.000
    N167     N        0.01863    0.58658    0.00395    1.000
    Si168    Si       0.99094    0.56638    0.03126    1.000
    N169     N        0.02414    0.62604    0.06574    1.000
    N170     N        0.99341    0.58947    0.11534    1.000
    Si171    Si       0.01479    0.51510    0.09095    1.000
    N172     N        0.00152    0.74338    0.01963    1.000
    N173     N        0.01027    0.71385    0.08112    1.000
    Si174    Si       0.03070    0.73339    0.04833    1.000
    Si175    Si       0.99583    0.51517    0.23610    1.000
    N176     N        0.03905    0.55946    0.16507    1.000
    Si177    Si       0.02338    0.59473    0.14665    1.000
    N178     N        0.99952    0.61018    0.17922    1.000
    N179     N        0.03513    0.53447    0.22914    1.000
    N180     N        0.04871    0.60511    0.22640    1.000
    N181     N        0.02626    0.73098    0.18737    1.000
    Si182    Si       0.01731    0.73483    0.11968    1.000
    N183     N        0.00454    0.65999    0.23883    1.000
    Si184    Si       0.02320    0.63663    0.20556    1.000
    N185     N        0.02161    0.52526    0.33304    1.000
    N186     N        0.01378    0.61550    0.34618    1.000
    N187     N        0.00700    0.67068    0.30527    1.000
    Si188    Si       0.02986    0.67875    0.26866    1.000
    N189     N        0.00380    0.74274    0.32230    1.000
    Si190    Si       0.03059    0.75554    0.29095    1.000
    N191     N        0.04156    0.71993    0.26503    1.000
    Si192    Si       0.03277    0.54279    0.37330    1.000
    N193     N        0.00338    0.56658    0.39189    1.000
    Si194    Si       0.01016    0.61058    0.39018    1.000
    N195     N        0.00631    0.54012    0.45607    1.000
    Si196    Si       0.03224    0.62954    0.47130    1.000
    N197     N        0.99768    0.60948    0.44981    1.000
    Si198    Si       0.02412    0.51167    0.43248    1.000
    N199     N        0.04760    0.62248    0.40612    1.000
    Si200    Si       0.03117    0.70031    0.46165    1.000
    N201     N        0.00794    0.70947    0.49533    1.000
    N202     N        0.00337    0.67492    0.43758    1.000
    N203     N        0.01658    0.73087    0.39800    1.000
    Si204    Si       0.00833    0.56794    0.58590    1.000
    N205     N        0.01261    0.52473    0.59259    1.000
    N206     N        0.03306    0.57458    0.55097    1.000
    Si207    Si       0.04052    0.61608    0.54010    1.000
    N208     N        0.01221    0.62481    0.50867    1.000
    N209     N        0.02988    0.58915    0.61787    1.000
    N210     N        0.04053    0.64304    0.57364    1.000
    Si211    Si       0.00870    0.67212    0.58286    1.000
    N212     N        0.02377    0.70240    0.60857    1.000
    Si213    Si       0.00922    0.74244    0.60251    1.000
    N214     N        0.01483    0.75066    0.55836    1.000
    Si215    Si       0.99152    0.72651    0.53051    1.000
    N216     N        0.98585    0.54845    0.65304    1.000
    Si217    Si       0.00831    0.51713    0.63433    1.000
    Si218    Si       0.01293    0.58232    0.65943    1.000
    N219     N        0.00044    0.54836    0.71851    1.000
    Si220    Si       0.03398    0.57489    0.72482    1.000
    N221     N        0.03252    0.61371    0.74568    1.000
    N222     N        0.04008    0.72157    0.67131    1.000
    Si223    Si       0.99540    0.64793    0.64373    1.000
    N224     N        0.02269    0.68094    0.72477    1.000
    N225     N        0.04049    0.65214    0.64339    1.000
    Si226    Si       0.00632    0.70642    0.69528    1.000
    Si227    Si       0.00412    0.64574    0.74235    1.000
    Si228    Si       0.03156    0.59459    0.85815    1.000
    N229     N        0.03287    0.60293    0.81323    1.000
    N230     N        0.01269    0.55415    0.85684    1.000
    Si231    Si       0.01441    0.51127    0.86336    1.000
    Si232    Si       0.01264    0.71903    0.82467    1.000
    N233     N        0.04513    0.69538    0.84154    1.000
    N234     N        0.00629    0.74919    0.74588    1.000
    N235     N        0.98839    0.64128    0.78462    1.000
    N236     N        0.02939    0.75590    0.80821    1.000
    Si237    Si       0.02610    0.52344    0.93500    1.000
    Si238    Si       0.00813    0.59193    0.96118    1.000
    N239     N        0.02844    0.56771    0.93257    1.000
    N240     N        0.99199    0.61082    0.87152    1.000
    N241     N        0.02001    0.63340    0.95598    1.000
    Si242    Si       0.04228    0.69595    0.88531    1.000
    Si243    Si       0.00247    0.75693    0.88514    1.000
    N244     N        0.00908    0.67622    0.90256    1.000
    N245     N        0.03958    0.73895    0.89515    1.000
    N246     N        0.00237    0.69868    0.97222    1.000
    Si247    Si       0.04251    0.71006    0.98356    1.000
    Si248    Si       0.99781    0.66765    0.94396    1.000
    N249     N        0.00712    0.87192    0.01623    1.000
    Si250    Si       0.03542    0.79925    0.08135    1.000
    N251     N        0.00610    0.81486    0.05473    1.000
    N252     N        0.01229    0.77610    0.11381    1.000
    Si253    Si       0.99526    0.83063    0.01604    1.000
    Si254    Si       0.04687    0.88447    0.00550    1.000
    Si255    Si       0.04312    0.94399    0.04962    1.000
    N256     N        0.00942    0.92214    0.06351    1.000
    Si257    Si       0.00267    0.91999    0.10814    1.000
    N258     N        0.00741    0.96260    0.11548    1.000
    N259     N        0.04515    0.98668    0.04036    1.000
    N260     N        0.04007    0.90090    0.12041    1.000
    Si261    Si       0.02538    0.84149    0.18535    1.000
    Si262    Si       0.04115    0.85906    0.12428    1.000
    N263     N        0.03955    0.84136    0.22850    1.000
    N264     N        0.01629    0.79772    0.18026    1.000
    N265     N        0.00358    0.84269    0.13682    1.000
    Si266    Si       0.99193    0.79989    0.14277    1.000
    N267     N        0.99505    0.87098    0.19263    1.000
    Si268    Si       0.00182    0.96536    0.16076    1.000
    N269     N        0.01449    0.95642    0.20412    1.000
    N270     N        0.01973    0.00645    0.16193    1.000
    Si271    Si       0.99465    0.91360    0.20434    1.000
    N272     N        0.02092    0.79314    0.27308    1.000
    N273     N        0.02390    0.80800    0.35200    1.000
    N274     N        0.02960    0.85598    0.29376    1.000
    Si275    Si       0.00735    0.83979    0.32683    1.000
    Si276    Si       0.01348    0.86402    0.25199    1.000
    Si277    Si       0.99092    0.78057    0.33833    1.000
    Si278    Si       0.02483    0.94271    0.26982    1.000
    N279     N        0.00640    0.94284    0.30947    1.000
    N280     N        0.01345    0.98461    0.26363    1.000
    Si281    Si       0.00536    0.91023    0.33791    1.000
    Si282    Si       0.99785    0.98689    0.30613    1.000
    N283     N        0.02495    0.01214    0.32783    1.000
    N284     N        0.00884    0.90824    0.24741    1.000
    Si285    Si       0.01721    0.80661    0.46525    1.000
    N286     N        0.03277    0.85882    0.39846    1.000
    Si287    Si       0.00105    0.85988    0.42779    1.000
    N288     N        0.02366    0.84898    0.46508    1.000
    N289     N        0.02429    0.79414    0.42329    1.000
    Si290    Si       0.99528    0.76597    0.41046    1.000
    Si291    Si       0.04249    0.81827    0.39010    1.000
    N292     N        0.03830    0.78411    0.49519    1.000
    Si293    Si       0.04128    0.87863    0.49414    1.000
    N294     N        0.03684    0.92107    0.48985    1.000
    N295     N        0.03903    0.92570    0.41458    1.000
    N296     N        0.02942    0.99187    0.39893    1.000
    N297     N        0.02489    0.98940    0.47027    1.000
    Si298    Si       0.00154    0.99402    0.43444    1.000
    Si299    Si       0.99655    0.92627    0.41647    1.000
    N300     N        0.02373    0.83970    0.58916    1.000
    Si301    Si       0.03022    0.78528    0.53911    1.000
    Si302    Si       0.99780    0.85023    0.55622    1.000
    N303     N        0.01343    0.87770    0.52758    1.000
    N304     N        0.99576    0.81136    0.53496    1.000
    N305     N        0.03212    0.77303    0.62248    1.000
    Si306    Si       0.04261    0.86191    0.62015    1.000
    Si307    Si       0.99254    0.96711    0.56628    1.000
    Si308    Si       0.99668    0.00053    0.49982    1.000
    N309     N        0.99433    0.96285    0.52134    1.000
    N310     N        0.03099    0.98725    0.57770    1.000
    Si311    Si       0.99614    0.91889    0.52107    1.000
    Si312    Si       0.04597    0.76474    0.66370    1.000
    Si313    Si       0.99137    0.77567    0.71212    1.000
    N314     N        0.03225    0.78810    0.69613    1.000
    N315     N        0.01595    0.87518    0.65369    1.000
    N316     N        0.03577    0.85445    0.71926    1.000
    N317     N        0.98926    0.00726    0.63113    1.000
    N318     N        0.01317    0.98136    0.74192    1.000
    N319     N        0.00809    0.91477    0.71096    1.000
    Si320    Si       0.03403    0.88775    0.69084    1.000
    Si321    Si       0.03092    0.94210    0.73637    1.000
    Si322    Si       0.02863    0.99643    0.62099    1.000
    Si323    Si       0.03072    0.79583    0.82470    1.000
    N324     N        0.03615    0.87364    0.83682    1.000
    N325     N        0.99731    0.81860    0.80972    1.000
    N326     N        0.02439    0.79479    0.86862    1.000
    Si327    Si       0.04316    0.75617    0.76761    1.000
    Si328    Si       0.00334    0.97222    0.78303    1.000
    N329     N        0.02879    0.99549    0.80626    1.000
    Si330    Si       0.02584    0.98389    0.85300    1.000
    N331     N        0.00267    0.94562    0.84376    1.000
    Si332    Si       0.02659    0.91448    0.81855    1.000
    N333     N        0.01893    0.93235    0.77794    1.000
    N334     N        0.01089    0.84364    0.92388    1.000
    N335     N        0.01901    0.81090    0.98433    1.000
    Si336    Si       0.00852    0.76998    0.98485    1.000
    Si337    Si       0.03991    0.82742    0.95068    1.000
    Si338    Si       0.99458    0.81998    0.89209    1.000
    N339     N        0.02362    0.97147    0.89809    1.000
    Si340    Si       0.01973    0.88707    0.92965    1.000
    N341     N        0.00790    0.91730    0.95890    1.000
    Si342    Si       0.02617    0.94930    0.97752    1.000
    N343     N        0.00001    0.97999    0.98966    1.000
    Si344    Si       0.98933    0.99894    0.90366    1.000
    N345     N        0.07470    0.04537    0.04054    1.000
    Si346    Si       0.06188    0.01532    0.06923    1.000
    N347     N        0.09951    0.08024    0.11152    1.000
    Si348    Si       0.05234    0.07048    0.01126    1.000
    Si349    Si       0.06057    0.09740    0.11899    1.000
    Si350    Si       0.05868    0.13216    0.05607    1.000
    N351     N        0.10083    0.13498    0.06350    1.000
    N352     N        0.09738    0.20438    0.07910    1.000
    Si353    Si       0.05264    0.19874    0.08281    1.000
    Si354    Si       0.04854    0.12225    0.24001    1.000
    N355     N        0.08351    0.02759    0.15805    1.000
    N356     N        0.06715    0.12842    0.14886    1.000
    Si357    Si       0.10552    0.01525    0.19299    1.000
    Si358    Si       0.07909    0.19060    0.21606    1.000
    N359     N        0.04109    0.20879    0.21198    1.000
    N360     N        0.07520    0.15498    0.23696    1.000
    N361     N        0.10081    0.18382    0.17812    1.000
    N362     N        0.06671    0.02687    0.27184    1.000
    N363     N        0.08811    0.02102    0.34150    1.000
    N364     N        0.08073    0.09933    0.25947    1.000
    Si365    Si       0.09759    0.05881    0.25996    1.000
    Si366    Si       0.05898    0.03501    0.31471    1.000
    N367     N        0.05303    0.07766    0.32030    1.000
    Si368    Si       0.05505    0.10207    0.35558    1.000
    Si369    Si       0.10104    0.05277    0.37064    1.000
    Si370    Si       0.10235    0.13746    0.27050    1.000
    N371     N        0.07614    0.13945    0.36298    1.000
    N372     N        0.09079    0.16978    0.30197    1.000
    Si373    Si       0.08835    0.20976    0.28504    1.000
    Si374    Si       0.05720    0.16022    0.32945    1.000
    N375     N        0.04883    0.22710    0.27935    1.000
    N376     N        0.07022    0.07682    0.38671    1.000
    Si377    Si       0.07433    0.07525    0.42994    1.000
    N378     N        0.10220    0.11451    0.43454    1.000
    N379     N        0.09886    0.05204    0.45768    1.000
    Si380    Si       0.08217    0.14543    0.45885    1.000
    N381     N        0.08476    0.17194    0.42193    1.000
    Si382    Si       0.10492    0.14374    0.39548    1.000
    N383     N        0.07075    0.21530    0.46991    1.000
    Si384    Si       0.06064    0.20730    0.42859    1.000
    N385     N        0.06946    0.24076    0.40199    1.000
    Si386    Si       0.10592    0.20786    0.49241    1.000
    N387     N        0.07943    0.03456    0.56442    1.000
    Si388    Si       0.06149    0.05927    0.59619    1.000
    N389     N        0.09330    0.08972    0.60705    1.000
    Si390    Si       0.09150    0.13077    0.58214    1.000
    N391     N        0.06859    0.13028    0.54541    1.000
    N392     N        0.09775    0.20654    0.53575    1.000
    Si393    Si       0.05709    0.21887    0.54804    1.000
    N394     N        0.07859    0.15076    0.61867    1.000
    N395     N        0.05577    0.20926    0.58922    1.000
    Si396    Si       0.05346    0.25187    0.60191    1.000
    Si397    Si       0.08228    0.11338    0.64169    1.000
    Si398    Si       0.08577    0.11235    0.70337    1.000
    Si399    Si       0.06410    0.04522    0.67192    1.000
    N400     N        0.05683    0.09161    0.67302    1.000
    Si401    Si       0.09948    0.04070    0.73287    1.000
    N402     N        0.10170    0.02974    0.68906    1.000
    N403     N        0.10415    0.08391    0.73055    1.000
    N404     N        0.05501    0.03187    0.62980    1.000
    Si405    Si       0.10027    0.17332    0.74300    1.000
    N406     N        0.08516    0.20835    0.65578    1.000
    Si407    Si       0.05694    0.18612    0.62812    1.000
    N408     N        0.07214    0.14942    0.72076    1.000
    Si409    Si       0.08158    0.22283    0.69809    1.000
    N410     N        0.08894    0.05231    0.81164    1.000
    N411     N        0.07865    0.11421    0.79460    1.000
    Si412    Si       0.05998    0.08345    0.82025    1.000
    N413     N        0.06134    0.09040    0.86304    1.000
    Si414    Si       0.06875    0.01261    0.81067    1.000
    N415     N        0.06191    0.03088    0.75211    1.000
    Si416    Si       0.07796    0.15231    0.80967    1.000
    N417     N        0.08050    0.18565    0.78035    1.000
    N418     N        0.09543    0.14908    0.84717    1.000
    Si419    Si       0.09867    0.11352    0.87599    1.000
    N420     N        0.10147    0.09136    0.91680    1.000
    N421     N        0.08428    0.02185    0.92626    1.000
    N422     N        0.08242    0.06399    0.98143    1.000
    Si423    Si       0.07594    0.06240    0.93896    1.000
    Si424    Si       0.09433    0.00696    0.88705    1.000
    Si425    Si       0.07089    0.24291    0.88014    1.000
    N426     N        0.07077    0.19983    0.87967    1.000
    N427     N        0.07402    0.14565    0.95975    1.000
    N428     N        0.06040    0.22229    0.99522    1.000
    Si429    Si       0.10419    0.22710    0.99606    1.000
    N430     N        0.09103    0.30248    0.07580    1.000
    N431     N        0.10208    0.26359    0.01994    1.000
    Si432    Si       0.10531    0.32447    0.11044    1.000
    N433     N        0.10569    0.36689    0.10135    1.000
    N434     N        0.08000    0.41829    0.05850    1.000
    N435     N        0.06878    0.47236    0.01409    1.000
    Si436    Si       0.09842    0.45174    0.03870    1.000
    N437     N        0.08870    0.44153    0.12399    1.000
    Si438    Si       0.05643    0.34478    0.16700    1.000
    N439     N        0.07521    0.31325    0.14263    1.000
    N440     N        0.06860    0.27097    0.19904    1.000
    N441     N        0.08042    0.33895    0.20556    1.000
    Si442    Si       0.09478    0.28109    0.16472    1.000
    Si443    Si       0.05000    0.30596    0.21963    1.000
    Si444    Si       0.06603    0.46419    0.15048    1.000
    N445     N        0.08737    0.50079    0.16343    1.000
    N446     N        0.07246    0.38684    0.16319    1.000
    Si447    Si       0.06420    0.41093    0.19809    1.000
    Si448    Si       0.10438    0.45293    0.24205    1.000
    N449     N        0.08872    0.49227    0.23137    1.000
    N450     N        0.10459    0.42505    0.21041    1.000
    Si451    Si       0.09976    0.39930    0.13082    1.000
    N452     N        0.09361    0.29726    0.29554    1.000
    Si453    Si       0.08734    0.26794    0.32776    1.000
    Si454    Si       0.05257    0.31029    0.29802    1.000
    N455     N        0.08497    0.37643    0.26308    1.000
    N456     N        0.08248    0.39479    0.32980    1.000
    Si457    Si       0.08832    0.47608    0.31102    1.000
    N458     N        0.07774    0.46102    0.35385    1.000
    N459     N        0.08228    0.44512    0.27916    1.000
    Si460    Si       0.09953    0.40593    0.29073    1.000
    Si461    Si       0.06286    0.42196    0.36400    1.000
    Si462    Si       0.05411    0.50253    0.25515    1.000
    N463     N        0.06730    0.35311    0.42906    1.000
    Si464    Si       0.10248    0.32981    0.41697    1.000
    N465     N        0.10511    0.28766    0.43218    1.000
    Si466    Si       0.10882    0.26110    0.39852    1.000
    N467     N        0.09679    0.40667    0.38897    1.000
    Si468    Si       0.08469    0.48918    0.38598    1.000
    Si469    Si       0.07366    0.39505    0.42386    1.000
    N470     N        0.09035    0.41060    0.45891    1.000
    Si471    Si       0.06270    0.29442    0.53667    1.000
    N472     N        0.10009    0.30638    0.55754    1.000
    N473     N        0.09327    0.26346    0.61580    1.000
    N474     N        0.07183    0.37863    0.52407    1.000
    N475     N        0.04923    0.37793    0.59124    1.000
    Si476    Si       0.10526    0.30567    0.59969    1.000
    N477     N        0.04839    0.26310    0.56068    1.000
    N478     N        0.07161    0.27527    0.49748    1.000
    Si479    Si       0.07819    0.40956    0.60570    1.000
    N480     N        0.09383    0.48612    0.50972    1.000
    N481     N        0.05455    0.44383    0.61710    1.000
    Si482    Si       0.07377    0.41205    0.49796    1.000
    Si483    Si       0.05201    0.48088    0.50322    1.000
    N484     N        0.07978    0.32074    0.63167    1.000
    N485     N        0.08902    0.36820    0.69571    1.000
    Si486    Si       0.07414    0.35566    0.65644    1.000
    Si487    Si       0.06625    0.29481    0.72030    1.000
    Si488    Si       0.06854    0.28432    0.65614    1.000
    N489     N        0.10027    0.31805    0.73735    1.000
    N490     N        0.08947    0.26646    0.69148    1.000
    N491     N        0.10669    0.48856    0.62771    1.000
    N492     N        0.09772    0.39497    0.64259    1.000
    Si493    Si       0.09980    0.46717    0.71894    1.000
    N494     N        0.07371    0.45034    0.68406    1.000
    Si495    Si       0.07315    0.47089    0.64623    1.000
    N496     N        0.10365    0.42642    0.73598    1.000
    Si497    Si       0.09449    0.41193    0.68443    1.000
    N498     N        0.06520    0.48406    0.73703    1.000
    N499     N        0.07349    0.31175    0.80405    1.000
    Si500    Si       0.08203    0.30136    0.84674    1.000
    Si501    Si       0.06570    0.26370    0.79603    1.000
    N502     N        0.07837    0.37496    0.77747    1.000
    N503     N        0.10648    0.26468    0.77609    1.000
    N504     N        0.07340    0.25970    0.83900    1.000
    Si505    Si       0.10893    0.30819    0.77707    1.000
    N506     N        0.06613    0.44192    0.79574    1.000
    Si507    Si       0.07039    0.41424    0.76255    1.000
    N508     N        0.09403    0.47137    0.85642    1.000
    Si509    Si       0.06812    0.47515    0.82153    1.000
    N510     N        0.06475    0.27509    0.95325    1.000
    N511     N        0.08891    0.36987    0.89425    1.000
    Si512    Si       0.08904    0.34353    0.95537    1.000
    N513     N        0.05917    0.31130    0.87996    1.000
    N514     N        0.09429    0.32374    0.99311    1.000
    Si515    Si       0.05295    0.35423    0.88015    1.000
    Si516    Si       0.10591    0.27451    0.93563    1.000
    N517     N        0.10742    0.25790    0.89520    1.000
    Si518    Si       0.07164    0.28508    0.99776    1.000
    Si519    Si       0.09009    0.40607    0.91912    1.000
    N520     N        0.10304    0.48700    0.92065    1.000
    N521     N        0.10051    0.38898    0.95973    1.000
    Si522    Si       0.07063    0.47282    0.89515    1.000
    N523     N        0.05803    0.43277    0.90455    1.000
    N524     N        0.07621    0.59237    0.06109    1.000
    N525     N        0.08575    0.53278    0.03566    1.000
    Si526    Si       0.06149    0.55249    0.06587    1.000
    Si527    Si       0.06343    0.62591    0.08870    1.000
    N528     N        0.05778    0.52838    0.10221    1.000
    Si529    Si       0.04533    0.61017    0.03134    1.000
    N530     N        0.06578    0.64080    0.01002    1.000
    N531     N        0.05578    0.70642    0.02485    1.000
    Si532    Si       0.08725    0.67450    0.03092    1.000
    N533     N        0.08869    0.65893    0.07262    1.000
    Si534    Si       0.09836    0.75656    0.06721    1.000
    N535     N        0.09624    0.55704    0.20599    1.000
    N536     N        0.05561    0.61666    0.12964    1.000
    Si537    Si       0.05688    0.52456    0.14496    1.000
    Si538    Si       0.05381    0.56520    0.20815    1.000
    Si539    Si       0.10798    0.51494    0.19932    1.000
    Si540    Si       0.07685    0.73229    0.24049    1.000
    N541     N        0.04925    0.66202    0.17997    1.000
    Si542    Si       0.09884    0.74488    0.13117    1.000
    N543     N        0.05831    0.72176    0.13357    1.000
    Si544    Si       0.05712    0.70343    0.17429    1.000
    N545     N        0.08872    0.71716    0.20078    1.000
    Si546    Si       0.08105    0.63822    0.15596    1.000
    N547     N        0.06560    0.56698    0.35396    1.000
    Si548    Si       0.07196    0.61278    0.26267    1.000
    N549     N        0.05641    0.58785    0.29481    1.000
    N550     N        0.07456    0.51411    0.29337    1.000
    Si551    Si       0.05449    0.60538    0.33575    1.000
    Si552    Si       0.05515    0.54681    0.31282    1.000
    N553     N        0.08166    0.63673    0.34403    1.000
    Si554    Si       0.09145    0.74334    0.33641    1.000
    N555     N        0.06864    0.65733    0.27210    1.000
    N556     N        0.08931    0.69985    0.33070    1.000
    Si557    Si       0.09903    0.68028    0.29076    1.000
    Si558    Si       0.08880    0.67269    0.36555    1.000
    Si559    Si       0.10456    0.56130    0.37143    1.000
    N560     N        0.06258    0.59804    0.46807    1.000
    Si561    Si       0.08040    0.60721    0.42890    1.000
    N562     N        0.10584    0.57476    0.41282    1.000
    N563     N        0.05247    0.51424    0.40029    1.000
    Si564    Si       0.07175    0.75936    0.48344    1.000
    N565     N        0.06046    0.73208    0.44984    1.000
    Si566    Si       0.05866    0.73004    0.40542    1.000
    N567     N        0.05722    0.66652    0.46728    1.000
    N568     N        0.07344    0.68935    0.40239    1.000
    N569     N        0.08432    0.75173    0.37973    1.000
    Si570    Si       0.08993    0.67670    0.44086    1.000
    N571     N        0.08313    0.62155    0.53021    1.000
    N572     N        0.08632    0.55309    0.51506    1.000
    N573     N        0.08620    0.52254    0.57695    1.000
    Si574    Si       0.06013    0.53977    0.54741    1.000
    Si575    Si       0.05499    0.62570    0.61168    1.000
    N576     N        0.09734    0.62916    0.60104    1.000
    Si577    Si       0.09444    0.59217    0.49962    1.000
    Si578    Si       0.08040    0.52907    0.62121    1.000
    N579     N        0.10396    0.68870    0.56353    1.000
    N580     N        0.07581    0.72802    0.51335    1.000
    Si581    Si       0.10350    0.64383    0.56106    1.000
    N582     N        0.05090    0.58033    0.68428    1.000
    Si583    Si       0.09471    0.58327    0.67905    1.000
    N584     N        0.10557    0.55705    0.64091    1.000
    N585     N        0.04937    0.50918    0.64610    1.000
    Si586    Si       0.05042    0.69400    0.64047    1.000
    N587     N        0.09176    0.69919    0.63293    1.000
    N588     N        0.09279    0.68190    0.71855    1.000
    Si589    Si       0.06129    0.68874    0.74584    1.000
    N590     N        0.09607    0.60369    0.77976    1.000
    Si591    Si       0.05582    0.62127    0.77998    1.000
    N592     N        0.06223    0.55390    0.75038    1.000
    Si593    Si       0.05578    0.51426    0.76703    1.000
    Si594    Si       0.10272    0.56885    0.75442    1.000
    N595     N        0.07687    0.51458    0.80496    1.000
    N596     N        0.09577    0.64263    0.83520    1.000
    N597     N        0.07348    0.72839    0.76228    1.000
    N598     N        0.05979    0.66403    0.78175    1.000
    Si599    Si       0.07984    0.67924    0.81811    1.000
    N600     N        0.09742    0.55822    0.91380    1.000
    Si601    Si       0.09604    0.52495    0.94012    1.000
    N602     N        0.06206    0.61019    0.88447    1.000
    Si603    Si       0.06581    0.58669    0.92037    1.000
    N604     N        0.08521    0.61601    0.94646    1.000
    N605     N        0.05717    0.51651    0.96170    1.000
    Si606    Si       0.07674    0.51197    0.99864    1.000
    N607     N        0.04811    0.75130    0.97396    1.000
    Si608    Si       0.09152    0.63948    0.87706    1.000
    Si609    Si       0.09846    0.69645    0.92774    1.000
    N610     N        0.08232    0.67806    0.89224    1.000
    N611     N        0.10471    0.74059    0.93169    1.000
    Si612    Si       0.06089    0.64517    0.96686    1.000
    N613     N        0.06868    0.68637    0.95831    1.000
    N614     N        0.07469    0.86728    0.03217    1.000
    N615     N        0.06103    0.82715    0.10104    1.000
    N616     N        0.05574    0.76604    0.06166    1.000
    N617     N        0.07400    0.94023    0.08213    1.000
    N618     N        0.04923    0.93000    0.00990    1.000
    N619     N        0.09117    0.00914    0.09963    1.000
    Si620    Si       0.08861    0.94769    0.99324    1.000
    Si621    Si       0.08858    0.81129    0.13046    1.000
    N622     N        0.06289    0.77251    0.22796    1.000
    N623     N        0.07953    0.77859    0.15860    1.000
    N624     N        0.06178    0.85406    0.16388    1.000
    Si625    Si       0.04706    0.76926    0.18655    1.000
    Si626    Si       0.08286    0.88499    0.18281    1.000
    N627     N        0.06364    0.96186    0.15417    1.000
    Si628    Si       0.07205    0.92977    0.12700    1.000
    N629     N        0.07814    0.99189    0.21837    1.000
    N630     N        0.10057    0.90399    0.14673    1.000
    Si631    Si       0.05384    0.00398    0.13513    1.000
    Si632    Si       0.05811    0.95983    0.19689    1.000
    N633     N        0.07010    0.92015    0.20683    1.000
    Si634    Si       0.08998    0.91698    0.24642    1.000
    N635     N        0.09352    0.81669    0.26954    1.000
    Si636    Si       0.09512    0.80103    0.30937    1.000
    N637     N        0.09258    0.84080    0.33096    1.000
    Si638    Si       0.06513    0.87325    0.31105    1.000
    N639     N        0.06997    0.76517    0.30486    1.000
    Si640    Si       0.05473    0.80768    0.25007    1.000
    N641     N        0.09058    0.88340    0.27615    1.000
    N642     N        0.06742    0.94614    0.26997    1.000
    Si643    Si       0.08270    0.98670    0.26244    1.000
    N644     N        0.04537    0.89544    0.34265    1.000
    N645     N        0.08444    0.81537    0.39652    1.000
    Si646    Si       0.10296    0.83004    0.48870    1.000
    N647     N        0.10484    0.78639    0.48303    1.000
    Si648    Si       0.06219    0.96462    0.41356    1.000
    N649     N        0.08494    0.96151    0.45264    1.000
    N650     N        0.09641    0.88806    0.40027    1.000
    Si651    Si       0.05513    0.89353    0.38622    1.000
    N652     N        0.09231    0.95749    0.38262    1.000
    Si653    Si       0.05287    0.96118    0.48204    1.000
    N654     N        0.06833    0.79419    0.56110    1.000
    N655     N        0.08025    0.86437    0.50495    1.000
    Si656    Si       0.05216    0.80462    0.60057    1.000
    Si657    Si       0.10937    0.87346    0.53616    1.000
    N658     N        0.07033    0.97659    0.52060    1.000
    N659     N        0.06197    0.89815    0.60939    1.000
    N660     N        0.09702    0.91669    0.54910    1.000
    Si661    Si       0.10056    0.90608    0.59192    1.000
    Si662    Si       0.05245    0.00880    0.54360    1.000
    Si663    Si       0.09913    0.81333    0.66011    1.000
    N664     N        0.09052    0.77123    0.66070    1.000
    N665     N        0.07138    0.82923    0.62966    1.000
    N666     N        0.09351    0.82661    0.69997    1.000
    Si667    Si       0.05505    0.81710    0.71945    1.000
    N668     N        0.04515    0.96020    0.63936    1.000
    Si669    Si       0.06890    0.92599    0.64285    1.000
    N670     N        0.07101    0.91102    0.68264    1.000
    N671     N        0.07387    0.94924    0.74307    1.000
    Si672    Si       0.09878    0.92926    0.71155    1.000
    Si673    Si       0.07304    0.85388    0.82918    1.000
    N674     N        0.07222    0.81274    0.81717    1.000
    Si675    Si       0.09355    0.80520    0.77958    1.000
    N676     N        0.05984    0.79440    0.75570    1.000
    N677     N        0.09544    0.87530    0.79972    1.000
    N678     N        0.10499    0.84434    0.85887    1.000
    N679     N        0.06967    0.93120    0.82005    1.000
    Si680    Si       0.08830    0.94924    0.78318    1.000
    N681     N        0.10156    0.98882    0.79681    1.000
    N682     N        0.06624    0.00552    0.85519    1.000
    Si683    Si       0.10558    0.90840    0.82446    1.000
    N684     N        0.09934    0.77635    0.87115    1.000
    N685     N        0.05574    0.86585    0.96474    1.000
    N686     N        0.06360    0.79823    0.92898    1.000
    Si687    Si       0.05910    0.77735    0.88986    1.000
    Si688    Si       0.08341    0.77105    0.95662    1.000
    N689     N        0.10595    0.91311    0.96984    1.000
    Si690    Si       0.05787    0.95191    0.91352    1.000
    Si691    Si       0.08599    0.88835    0.94160    1.000
    N692     N        0.10384    0.99499    0.99363    1.000
    N693     N        0.09728    0.96474    0.89904    1.000
    N694     N        0.05649    0.90739    0.91657    1.000
    Si695    Si       0.10426    0.99159    0.94916    1.000
    N696     N        0.06496    0.96205    0.95726    1.000
    Si697    Si       0.12372    0.11446    0.09485    1.000
    N698     N        0.13740    0.06822    0.02086    1.000
    N699     N        0.15083    0.03154    0.10329    1.000
    Si700    Si       0.15566    0.05924    0.06412    1.000
    N701     N        0.13917    0.01333    0.04678    1.000
    N702     N        0.16286    0.09875    0.08270    1.000
    Si703    Si       0.11100    0.03340    0.01629    1.000
    Si704    Si       0.12563    0.22963    0.10325    1.000
    N705     N        0.12462    0.19009    0.01089    1.000
    Si706    Si       0.11955    0.17489    0.05365    1.000
    N707     N        0.14851    0.25396    0.07448    1.000
    N708     N        0.15968    0.17627    0.06965    1.000
    Si709    Si       0.16368    0.16601    0.11290    1.000
    Si710    Si       0.13965    0.07421    0.19801    1.000
    N711     N        0.12481    0.11414    0.18740    1.000
    N712     N        0.14309    0.04908    0.16366    1.000
    N713     N        0.11493    0.04754    0.22289    1.000
    Si714    Si       0.11263    0.04142    0.12622    1.000
    Si715    Si       0.15764    0.13131    0.21043    1.000
    N716     N        0.13094    0.14387    0.12652    1.000
    Si717    Si       0.14379    0.22519    0.23521    1.000
    Si718    Si       0.12903    0.21314    0.16439    1.000
    N719     N        0.10841    0.24502    0.14111    1.000
    N720     N        0.15457    0.20624    0.12826    1.000
    N721     N        0.15801    0.22290    0.19553    1.000
    Si722    Si       0.10603    0.14285    0.16276    1.000
    Si723    Si       0.14460    0.08487    0.31328    1.000
    N724     N        0.13059    0.05257    0.29027    1.000
    N725     N        0.13761    0.07223    0.35514    1.000
    N726     N        0.12426    0.11984    0.30626    1.000
    Si727    Si       0.14350    0.01164    0.30613    1.000
    Si728    Si       0.12905    0.15856    0.32652    1.000
    Si729    Si       0.14190    0.24488    0.34759    1.000
    N730     N        0.16530    0.17330    0.31057    1.000
    N731     N        0.13765    0.15516    0.36969    1.000
    N732     N        0.10843    0.23200    0.31795    1.000
    N733     N        0.14232    0.14686    0.24926    1.000
    N734     N        0.10438    0.21249    0.24489    1.000
    N735     N        0.11028    0.02176    0.40028    1.000
    N736     N        0.15617    0.06245    0.43713    1.000
    Si737    Si       0.12946    0.02790    0.43848    1.000
    Si738    Si       0.12953    0.08861    0.46195    1.000
    N739     N        0.14652    0.23615    0.39077    1.000
    Si740    Si       0.16242    0.16502    0.45689    1.000
    N741     N        0.13273    0.24284    0.48646    1.000
    N742     N        0.11736    0.16351    0.48114    1.000
    Si743    Si       0.13631    0.07894    0.60795    1.000
    N744     N        0.13571    0.03459    0.60866    1.000
    N745     N        0.14271    0.02886    0.53567    1.000
    N746     N        0.15331    0.09099    0.56843    1.000
    Si747    Si       0.15111    0.07038    0.52929    1.000
    Si748    Si       0.11997    0.01889    0.57178    1.000
    N749     N        0.12529    0.09675    0.50561    1.000
    Si750    Si       0.12833    0.13906    0.51895    1.000
    Si751    Si       0.13038    0.19422    0.56245    1.000
    N752     N        0.13682    0.20557    0.60469    1.000
    N753     N        0.12563    0.15126    0.56154    1.000
    Si754    Si       0.15346    0.12680    0.66635    1.000
    N755     N        0.13155    0.01442    0.74423    1.000
    N756     N        0.16553    0.09459    0.63793    1.000
    Si757    Si       0.16446    0.01213    0.63401    1.000
    N758     N        0.11185    0.11861    0.67138    1.000
    N759     N        0.11100    0.21157    0.72689    1.000
    N760     N        0.14687    0.25107    0.65432    1.000
    N761     N        0.15947    0.16819    0.65792    1.000
    Si762    Si       0.11580    0.22977    0.63256    1.000
    N763     N        0.14510    0.09021    0.78926    1.000
    N764     N        0.13027    0.08992    0.85529    1.000
    Si765    Si       0.13057    0.06466    0.82201    1.000
    N766     N        0.15732    0.02946    0.81825    1.000
    Si767    Si       0.11384    0.10812    0.76584    1.000
    N768     N        0.13101    0.14738    0.75475    1.000
    Si769    Si       0.13657    0.24176    0.75338    1.000
    N770     N        0.13237    0.02869    0.88258    1.000
    Si771    Si       0.14858    0.08565    0.98229    1.000
    Si772    Si       0.13723    0.06585    0.90737    1.000
    N773     N        0.14703    0.05520    0.94956    1.000
    N774     N        0.13946    0.12751    0.97119    1.000
    Si775    Si       0.10729    0.12877    0.93990    1.000
    N776     N        0.12408    0.24107    0.95967    1.000
    N777     N        0.14319    0.20524    0.87072    1.000
    Si778    Si       0.10879    0.17990    0.87386    1.000
    Si779    Si       0.16148    0.23109    0.94390    1.000
    N780     N        0.11700    0.15073    0.90525    1.000
    Si781    Si       0.15202    0.16629    0.98478    1.000
    Si782    Si       0.14713    0.24846    0.87479    1.000
    N783     N        0.14648    0.31254    0.04428    1.000
    Si784    Si       0.11853    0.27958    0.05458    1.000
    Si785    Si       0.13214    0.33484    0.01124    1.000
    N786     N        0.14827    0.30946    0.11357    1.000
    N787     N        0.12491    0.37538    0.02695    1.000
    Si788    Si       0.11475    0.39220    0.06519    1.000
    N789     N        0.14554    0.42083    0.08158    1.000
    Si790    Si       0.12306    0.45678    0.10054    1.000
    N791     N        0.13276    0.43708    0.01779    1.000
    N792     N        0.11670    0.47988    0.06640    1.000
    N793     N        0.16134    0.50769    0.02533    1.000
    N794     N        0.15882    0.46682    0.12030    1.000
    Si795    Si       0.14892    0.29334    0.21666    1.000
    N796     N        0.14580    0.37292    0.21134    1.000
    N797     N        0.13517    0.29502    0.17650    1.000
    Si798    Si       0.10997    0.35662    0.23242    1.000
    N799     N        0.15073    0.50874    0.19310    1.000
    N800     N        0.13778    0.40472    0.14797    1.000
    Si801    Si       0.14026    0.40999    0.19114    1.000
    Si802    Si       0.13853    0.31760    0.34731    1.000
    Si803    Si       0.13444    0.29490    0.28083    1.000
    N804     N        0.13466    0.35382    0.32091    1.000
    N805     N        0.15797    0.28832    0.31692    1.000
    N806     N        0.11280    0.28006    0.36107    1.000
    Si807    Si       0.11395    0.37968    0.35481    1.000
    N808     N        0.14292    0.26524    0.25044    1.000
    Si809    Si       0.16370    0.38029    0.30107    1.000
    N810     N        0.13536    0.32589    0.24769    1.000
    N811     N        0.14172    0.41457    0.29135    1.000
    N812     N        0.12997    0.48292    0.31467    1.000
    Si813    Si       0.14697    0.49764    0.35223    1.000
    Si814    Si       0.15498    0.45721    0.28868    1.000
    N815     N        0.16099    0.45692    0.36597    1.000
    N816     N        0.14722    0.46430    0.24645    1.000
    N817     N        0.15463    0.39322    0.37165    1.000
    Si818    Si       0.15481    0.34145    0.47097    1.000
    N819     N        0.14078    0.34518    0.43184    1.000
    N820     N        0.12999    0.31384    0.49304    1.000
    Si821    Si       0.16528    0.35773    0.39779    1.000
    Si822    Si       0.10981    0.27941    0.47469    1.000
    N823     N        0.10935    0.34101    0.37576    1.000
    Si824    Si       0.13359    0.43289    0.39340    1.000
    Si825    Si       0.13392    0.41916    0.47075    1.000
    Si826    Si       0.13968    0.48345    0.44226    1.000
    N827     N        0.15035    0.46146    0.48177    1.000
    N828     N        0.16371    0.38611    0.48251    1.000
    N829     N        0.11381    0.46731    0.41271    1.000
    N830     N        0.15340    0.42200    0.43274    1.000
    N831     N        0.14029    0.36028    0.53824    1.000
    Si832    Si       0.13751    0.31670    0.53512    1.000
    N833     N        0.14675    0.31666    0.60838    1.000
    Si834    Si       0.14833    0.43169    0.57947    1.000
    N835     N        0.13702    0.46967    0.56325    1.000
    Si836    Si       0.12855    0.46393    0.52145    1.000
    N837     N        0.11517    0.42227    0.51488    1.000
    Si838    Si       0.12091    0.49923    0.58772    1.000
    N839     N        0.11183    0.40927    0.58050    1.000
    Si840    Si       0.11020    0.38893    0.54347    1.000
    N841     N        0.13742    0.31726    0.68032    1.000
    Si842    Si       0.13334    0.27528    0.68805    1.000
    N843     N        0.15072    0.36723    0.73358    1.000
    Si844    Si       0.12188    0.34461    0.71133    1.000
    N845     N        0.15591    0.26534    0.72150    1.000
    N846     N        0.13379    0.49046    0.70803    1.000
    Si847    Si       0.14305    0.40150    0.64488    1.000
    N848     N        0.13951    0.42210    0.68358    1.000
    Si849    Si       0.14279    0.41007    0.73052    1.000
    N850     N        0.14545    0.32661    0.79197    1.000
    N851     N        0.12047    0.32043    0.85527    1.000
    Si852    Si       0.15678    0.31354    0.83233    1.000
    N853     N        0.16465    0.26923    0.84062    1.000
    N854     N        0.14216    0.44098    0.81691    1.000
    Si855    Si       0.13670    0.47164    0.84543    1.000
    N856     N        0.14321    0.51281    0.83156    1.000
    N857     N        0.15490    0.36404    0.90581    1.000
    Si858    Si       0.11983    0.34155    0.89365    1.000
    N859     N        0.11876    0.31865    0.93246    1.000
    Si860    Si       0.16094    0.33616    0.94002    1.000
    N861     N        0.16188    0.34317    0.98201    1.000
    Si862    Si       0.14017    0.46519    0.91779    1.000
    Si863    Si       0.12848    0.40092    0.99128    1.000
    Si864    Si       0.15593    0.50661    0.98208    1.000
    N865     N        0.12760    0.42533    0.90665    1.000
    N866     N        0.15932    0.47885    0.88285    1.000
    N867     N        0.15666    0.47016    0.95783    1.000
    N868     N        0.13956    0.61332    0.02950    1.000
    N869     N        0.13989    0.55385    0.07038    1.000
    N870     N        0.12965    0.60960    0.10421    1.000
    Si871    Si       0.12163    0.59426    0.06369    1.000
    Si872    Si       0.12458    0.51899    0.04917    1.000
    Si873    Si       0.16732    0.61570    0.99857    1.000
    N874     N        0.15841    0.66720    0.08952    1.000
    Si875    Si       0.14643    0.72684    0.01761    1.000
    N876     N        0.12529    0.68984    0.01290    1.000
    Si877    Si       0.11561    0.67911    0.09870    1.000
    N878     N        0.11773    0.75636    0.02837    1.000
    N879     N        0.11045    0.72112    0.09144    1.000
    Si880    Si       0.12090    0.59218    0.21341    1.000
    N881     N        0.16042    0.57955    0.20300    1.000
    N882     N        0.11223    0.62417    0.18337    1.000
    N883     N        0.16358    0.54045    0.13633    1.000
    Si884    Si       0.13916    0.65465    0.16821    1.000
    N885     N        0.10867    0.66850    0.13939    1.000
    N886     N        0.13557    0.74006    0.15428    1.000
    Si887    Si       0.13002    0.72203    0.19262    1.000
    N888     N        0.15405    0.74540    0.22196    1.000
    N889     N        0.14404    0.68209    0.20020    1.000
    N890     N        0.13039    0.58881    0.34584    1.000
    Si891    Si       0.14787    0.61894    0.27628    1.000
    N892     N        0.11268    0.60411    0.25368    1.000
    Si893    Si       0.12488    0.63091    0.34223    1.000
    N894     N        0.11351    0.51870    0.37074    1.000
    N895     N        0.13328    0.65200    0.30347    1.000
    Si896    Si       0.15183    0.73212    0.26498    1.000
    N897     N        0.11040    0.71613    0.26772    1.000
    N898     N        0.12924    0.66033    0.37333    1.000
    N899     N        0.16679    0.71769    0.33165    1.000
    Si900    Si       0.13374    0.55818    0.43974    1.000
    N901     N        0.12237    0.52127    0.45768    1.000
    N902     N        0.13243    0.58492    0.47734    1.000
    Si903    Si       0.14699    0.61963    0.45158    1.000
    N904     N        0.15665    0.75188    0.46770    1.000
    Si905    Si       0.15561    0.70901    0.47025    1.000
    N906     N        0.10936    0.63844    0.44036    1.000
    N907     N        0.12920    0.69513    0.43952    1.000
    Si908    Si       0.14969    0.67005    0.40779    1.000
    N909     N        0.15125    0.52988    0.59424    1.000
    N910     N        0.14669    0.52419    0.52481    1.000
    N911     N        0.16121    0.59490    0.61671    1.000
    Si912    Si       0.11310    0.52572    0.49981    1.000
    N913     N        0.14752    0.63764    0.55514    1.000
    Si914    Si       0.12352    0.70059    0.60056    1.000
    N915     N        0.14370    0.69887    0.51168    1.000
    N916     N        0.13236    0.74071    0.61248    1.000
    Si917    Si       0.11174    0.71854    0.53330    1.000
    Si918    Si       0.16226    0.67683    0.54498    1.000
    N919     N        0.12875    0.75834    0.53851    1.000
    N920     N        0.16236    0.53891    0.66655    1.000
    Si921    Si       0.13103    0.62489    0.62787    1.000
    N922     N        0.11780    0.56532    0.71234    1.000
    N923     N        0.11308    0.62053    0.66798    1.000
    Si924    Si       0.14695    0.53361    0.70423    1.000
    Si925    Si       0.14637    0.55501    0.63051    1.000
    N926     N        0.14027    0.72054    0.67630    1.000
    Si927    Si       0.11213    0.73494    0.65036    1.000
    N928     N        0.16401    0.65391    0.64118    1.000
    Si929    Si       0.14996    0.63932    0.68383    1.000
    N930     N        0.15876    0.66739    0.71696    1.000
    Si931    Si       0.13185    0.70133    0.71485    1.000
    N932     N        0.13834    0.73310    0.74408    1.000
    N933     N        0.13001    0.54582    0.77721    1.000
    N934     N        0.15754    0.60992    0.82830    1.000
    Si935    Si       0.11259    0.53834    0.81542    1.000
    Si936    Si       0.11437    0.60555    0.81846    1.000
    N937     N        0.10572    0.57124    0.84348    1.000
    Si938    Si       0.16176    0.63443    0.86540    1.000
    Si939    Si       0.15593    0.69645    0.82048    1.000
    N940     N        0.11471    0.70251    0.80897    1.000
    Si941    Si       0.11290    0.73465    0.78021    1.000
    N942     N        0.16334    0.67919    0.86006    1.000
    Si943    Si       0.12608    0.57664    0.88581    1.000
    Si944    Si       0.12907    0.62649    0.93521    1.000
    N945     N        0.11668    0.52281    0.97899    1.000
    N946     N        0.15692    0.60106    0.95748    1.000
    N947     N        0.12813    0.62079    0.89199    1.000
    N948     N        0.16568    0.74386    0.89328    1.000
    Si949    Si       0.15055    0.68413    0.97797    1.000
    N950     N        0.12856    0.66868    0.94435    1.000
    Si951    Si       0.14042    0.80858    0.09137    1.000
    N952     N        0.14494    0.87122    0.02211    1.000
    Si953    Si       0.12708    0.79421    0.01223    1.000
    N954     N        0.12223    0.82020    0.05320    1.000
    Si955    Si       0.11191    0.86262    0.05037    1.000
    N956     N        0.10899    0.78045    0.10413    1.000
    N957     N        0.11850    0.88969    0.08330    1.000
    N958     N        0.14287    0.95698    0.08995    1.000
    Si959    Si       0.12795    0.99549    0.08624    1.000
    N960     N        0.11399    0.93468    0.02817    1.000
    Si961    Si       0.13645    0.90894    0.00163    1.000
    Si962    Si       0.11489    0.93091    0.07030    1.000
    Si963    Si       0.13122    0.88156    0.12440    1.000
    N964     N        0.12684    0.83763    0.12657    1.000
    Si965    Si       0.14865    0.85131    0.20686    1.000
    N966     N        0.15756    0.81183    0.18723    1.000
    N967     N        0.16068    0.87186    0.17122    1.000
    N968     N        0.10762    0.86363    0.21208    1.000
    N969     N        0.13262    0.93189    0.23742    1.000
    Si970    Si       0.15976    0.95225    0.20768    1.000
    N971     N        0.13865    0.98507    0.19146    1.000
    Si972    Si       0.13025    0.85528    0.34415    1.000
    N973     N        0.12324    0.77600    0.33590    1.000
    Si974    Si       0.11242    0.85201    0.25615    1.000
    N975     N        0.15667    0.84923    0.25045    1.000
    Si976    Si       0.16283    0.76104    0.32748    1.000
    N977     N        0.16212    0.85526    0.31543    1.000
    N978     N        0.12972    0.89989    0.34816    1.000
    N979     N        0.12426    0.98513    0.27906    1.000
    N980     N        0.14767    0.99231    0.34422    1.000
    Si981    Si       0.15264    0.95257    0.26980    1.000
    Si982    Si       0.11070    0.99329    0.36775    1.000
    N983     N        0.15242    0.77473    0.39603    1.000
    N984     N        0.14408    0.83604    0.38270    1.000
    N985     N        0.12105    0.84765    0.45302    1.000
    Si986    Si       0.11348    0.78496    0.37926    1.000
    Si987    Si       0.14734    0.87778    0.47215    1.000
    Si988    Si       0.11164    0.84748    0.41027    1.000
    N989     N        0.14197    0.91666    0.45439    1.000
    Si990    Si       0.11807    0.92223    0.38355    1.000
    Si991    Si       0.12958    0.95670    0.46690    1.000
    N992     N        0.14877    0.99257    0.45388    1.000
    N993     N        0.16028    0.94070    0.38936    1.000
    N994     N        0.14032    0.80346    0.58835    1.000
    Si995    Si       0.13967    0.84304    0.60758    1.000
    N996     N        0.12506    0.82839    0.52798    1.000
    Si997    Si       0.11223    0.79454    0.55502    1.000
    Si998    Si       0.14418    0.77605    0.50068    1.000
    N999     N        0.11404    0.86606    0.58098    1.000
    Si1000   Si       0.16188    0.77041    0.60632    1.000
    N1001    N        0.14539    0.88564    0.51573    1.000
    N1002    N        0.14377    0.95852    0.51111    1.000
    N1003    N        0.12240    0.97599    0.57187    1.000
    Si1004   Si       0.15943    0.95922    0.58770    1.000
    Si1005   Si       0.10443    0.95609    0.53718    1.000
    N1006    N        0.16813    0.92197    0.56978    1.000
    N1007    N        0.16265    0.85699    0.70155    1.000
    N1008    N        0.15555    0.79463    0.70825    1.000
    Si1009   Si       0.13197    0.82999    0.71927    1.000
    N1010    N        0.13828    0.82816    0.64816    1.000
    N1011    N        0.12117    0.89780    0.73182    1.000
    Si1012   Si       0.14477    0.94211    0.65444    1.000
    N1013    N        0.11350    0.92978    0.62684    1.000
    N1014    N        0.12375    0.95941    0.68994    1.000
    Si1015   Si       0.16341    0.89847    0.71418    1.000
    Si1016   Si       0.13356    0.00153    0.70111    1.000
    N1017    N        0.11848    0.77434    0.79862    1.000
    N1018    N        0.11965    0.83298    0.75953    1.000
    N1019    N        0.15934    0.80518    0.83906    1.000
    Si1020   Si       0.12557    0.87668    0.76910    1.000
    Si1021   Si       0.11295    0.80353    0.84095    1.000
    Si1022   Si       0.16284    0.77492    0.80636    1.000
    N1023    N        0.16667    0.87528    0.78237    1.000
    N1024    N        0.12677    0.92708    0.79069    1.000
    Si1025   Si       0.14132    0.00313    0.78628    1.000
    N1026    N        0.11926    0.90965    0.86514    1.000
    N1027    N        0.16346    0.96635    0.86197    1.000
    Si1028   Si       0.16932    0.93519    0.78254    1.000
    Si1029   Si       0.16490    0.01004    0.85788    1.000
    N1030    N        0.15119    0.79627    0.92016    1.000
    Si1031   Si       0.12718    0.86976    0.88492    1.000
    Si1032   Si       0.12992    0.82607    0.94480    1.000
    N1033    N        0.11283    0.86015    0.92372    1.000
    N1034    N        0.10941    0.80057    0.97397    1.000
    N1035    N        0.16955    0.86531    0.88697    1.000
    Si1036   Si       0.12781    0.76328    0.90269    1.000
    N1037    N        0.14806    0.98624    0.94545    1.000
    N1038    N        0.15967    0.92639    0.91814    1.000
    Si1039   Si       0.13330    0.94408    0.88760    1.000
    N1040    N        0.19652    0.04826    0.05011    1.000
    Si1041   Si       0.20018    0.10304    0.10747    1.000
    Si1042   Si       0.20885    0.05468    0.00544    1.000
    N1043    N        0.21084    0.22660    0.09376    1.000
    N1044    N        0.19986    0.22264    0.02711    1.000
    Si1045   Si       0.19293    0.18343    0.04220    1.000
    Si1046   Si       0.19085    0.24780    0.06112    1.000
    N1047    N        0.18615    0.15692    0.00982    1.000
    N1048    N        0.20307    0.07045    0.13581    1.000
    Si1049   Si       0.17597    0.03818    0.13829    1.000
    N1050    N        0.17625    0.09105    0.21481    1.000
    Si1051   Si       0.21724    0.08171    0.22155    1.000
    N1052    N        0.20834    0.01199    0.15336    1.000
    N1053    N        0.19943    0.14372    0.12519    1.000
    N1054    N        0.21440    0.20310    0.16186    1.000
    Si1055   Si       0.21611    0.16043    0.16069    1.000
    N1056    N        0.18664    0.15944    0.19384    1.000
    N1057    N        0.22047    0.24706    0.21774    1.000
    Si1058   Si       0.19686    0.20278    0.20450    1.000
    Si1059   Si       0.19357    0.22645    0.13350    1.000
    N1060    N        0.18731    0.09151    0.32051    1.000
    Si1061   Si       0.18185    0.08036    0.36136    1.000
    N1062    N        0.18775    0.01885    0.29767    1.000
    Si1063   Si       0.20794    0.01536    0.33784    1.000
    Si1064   Si       0.21923    0.10171    0.29320    1.000
    N1065    N        0.20555    0.04507    0.36982    1.000
    N1066    N        0.22071    0.06954    0.26304    1.000
    N1067    N        0.20938    0.13709    0.26933    1.000
    N1068    N        0.21451    0.16774    0.35997    1.000
    Si1069   Si       0.19876    0.19441    0.32611    1.000
    N1070    N        0.18169    0.23319    0.33646    1.000
    Si1071   Si       0.17520    0.16306    0.27012    1.000
    Si1072   Si       0.22388    0.21958    0.25545    1.000
    N1073    N        0.22728    0.20000    0.29437    1.000
    N1074    N        0.17975    0.20247    0.24914    1.000
    Si1075   Si       0.18473    0.09296    0.43162    1.000
    N1076    N        0.18310    0.10983    0.39203    1.000
    Si1077   Si       0.18965    0.11272    0.49652    1.000
    N1078    N        0.16622    0.12189    0.45904    1.000
    Si1079   Si       0.17987    0.15343    0.38306    1.000
    N1080    N        0.18671    0.24752    0.44465    1.000
    Si1081   Si       0.18182    0.22207    0.41001    1.000
    Si1082   Si       0.17507    0.23487    0.48386    1.000
    N1083    N        0.22506    0.23616    0.39613    1.000
    N1084    N        0.17429    0.17941    0.41910    1.000
    N1085    N        0.17928    0.19284    0.48416    1.000
    N1086    N        0.18656    0.07078    0.50487    1.000
    Si1087   Si       0.17744    0.12670    0.56581    1.000
    N1088    N        0.21665    0.11176    0.55601    1.000
    Si1089   Si       0.21348    0.01529    0.58580    1.000
    Si1090   Si       0.21910    0.04271    0.51117    1.000
    N1091    N        0.22420    0.04447    0.55574    1.000
    Si1092   Si       0.19713    0.24259    0.55475    1.000
    Si1093   Si       0.19278    0.18175    0.52333    1.000
    N1094    N        0.18917    0.15256    0.59989    1.000
    N1095    N        0.20573    0.24638    0.51178    1.000
    N1096    N        0.17394    0.14215    0.52382    1.000
    Si1097   Si       0.22449    0.13862    0.62044    1.000
    N1098    N        0.16791    0.20924    0.54854    1.000
    Si1099   Si       0.17311    0.18742    0.62090    1.000
    N1100    N        0.20001    0.03286    0.62368    1.000
    Si1101   Si       0.21269    0.09883    0.71345    1.000
    Si1102   Si       0.21198    0.02351    0.68837    1.000
    N1103    N        0.21322    0.06792    0.68289    1.000
    Si1104   Si       0.20367    0.07309    0.63938    1.000
    N1105    N        0.17832    0.12655    0.70609    1.000
    N1106    N        0.16988    0.01330    0.67846    1.000
    N1107    N        0.22811    0.01563    0.72803    1.000
    N1108    N        0.19401    0.18501    0.72503    1.000
    N1109    N        0.22393    0.14778    0.66511    1.000
    N1110    N        0.20643    0.21449    0.63637    1.000
    Si1111   Si       0.17257    0.15272    0.74363    1.000
    Si1112   Si       0.19323    0.16671    0.68614    1.000
    Si1113   Si       0.18593    0.25246    0.63516    1.000
    Si1114   Si       0.18559    0.10396    0.78606    1.000
    N1115    N        0.19695    0.08959    0.82673    1.000
    N1116    N        0.20448    0.03086    0.86393    1.000
    Si1117   Si       0.19818    0.04842    0.82202    1.000
    N1118    N        0.20558    0.07930    0.75553    1.000
    Si1119   Si       0.17203    0.10223    0.86013    1.000
    N1120    N        0.22393    0.02679    0.79727    1.000
    N1121    N        0.19469    0.14693    0.78145    1.000
    N1122    N        0.19493    0.20464    0.82998    1.000
    Si1123   Si       0.18991    0.24485    0.81464    1.000
    Si1124   Si       0.21774    0.17606    0.80581    1.000
    Si1125   Si       0.18039    0.18521    0.86642    1.000
    N1126    N        0.17466    0.24438    0.77442    1.000
    N1127    N        0.17373    0.14532    0.85590    1.000
    Si1128   Si       0.21084    0.05856    0.89923    1.000
    N1129    N        0.20865    0.03042    0.93082    1.000
    N1130    N        0.17740    0.08607    0.89930    1.000
    Si1131   Si       0.21506    0.12772    0.99442    1.000
    Si1132   Si       0.17197    0.02093    0.95406    1.000
    N1133    N        0.19217    0.09154    0.98841    1.000
    N1134    N        0.18867    0.01868    0.99339    1.000
    Si1135   Si       0.21342    0.18033    0.94093    1.000
    N1136    N        0.17626    0.25102    0.90742    1.000
    N1137    N        0.21209    0.18408    0.89711    1.000
    N1138    N        0.17183    0.19030    0.95282    1.000
    N1139    N        0.18848    0.25519    0.96707    1.000
    Si1140   Si       0.22373    0.23665    0.99061    1.000
    N1141    N        0.22643    0.13922    0.95221    1.000
    N1142    N        0.20895    0.28820    0.06152    1.000
    N1143    N        0.19778    0.35095    0.08834    1.000
    Si1144   Si       0.17634    0.31434    0.07816    1.000
    N1145    N        0.22109    0.34117    0.01787    1.000
    Si1146   Si       0.21899    0.36813    0.05345    1.000
    N1147    N        0.19443    0.39599    0.03149    1.000
    N1148    N        0.20234    0.45876    0.05075    1.000
    Si1149   Si       0.19784    0.50177    0.04798    1.000
    Si1150   Si       0.16969    0.43079    0.04250    1.000
    Si1151   Si       0.16738    0.42394    0.12042    1.000
    Si1152   Si       0.21605    0.36282    0.12609    1.000
    N1153    N        0.21383    0.36822    0.21113    1.000
    N1154    N        0.19642    0.33660    0.15749    1.000
    N1155    N        0.18916    0.30831    0.21626    1.000
    N1156    N        0.19651    0.26509    0.15139    1.000
    Si1157   Si       0.17698    0.34800    0.23203    1.000
    Si1158   Si       0.21487    0.28285    0.24122    1.000
    Si1159   Si       0.17110    0.30059    0.15008    1.000
    Si1160   Si       0.22058    0.32981    0.19244    1.000
    N1161    N        0.20656    0.40787    0.12884    1.000
    N1162    N        0.21280    0.48745    0.22656    1.000
    Si1163   Si       0.18459    0.49995    0.12704    1.000
    N1164    N        0.17723    0.43328    0.19606    1.000
    Si1165   Si       0.17088    0.47533    0.21289    1.000
    N1166    N        0.21356    0.48092    0.15312    1.000
    Si1167   Si       0.21240    0.41157    0.21335    1.000
    N1168    N        0.18956    0.35963    0.27128    1.000
    Si1169   Si       0.19739    0.26970    0.31667    1.000
    N1170    N        0.17362    0.32416    0.37215    1.000
    Si1171   Si       0.21725    0.31736    0.37354    1.000
    N1172    N        0.21316    0.26235    0.27869    1.000
    Si1173   Si       0.22158    0.38780    0.28318    1.000
    N1174    N        0.19439    0.47207    0.29695    1.000
    Si1175   Si       0.18509    0.42258    0.35590    1.000
    N1176    N        0.19949    0.39869    0.31860    1.000
    N1177    N        0.22044    0.42282    0.25603    1.000
    Si1178   Si       0.22297    0.46475    0.26329    1.000
    Si1179   Si       0.20871    0.50695    0.32149    1.000
    N1180    N        0.22071    0.30493    0.41437    1.000
    N1181    N        0.19510    0.32713    0.47581    1.000
    N1182    N        0.20257    0.37165    0.42072    1.000
    Si1183   Si       0.22224    0.26435    0.42899    1.000
    N1184    N        0.18233    0.49581    0.44058    1.000
    N1185    N        0.22383    0.42419    0.37542    1.000
    N1186    N        0.21299    0.43237    0.45863    1.000
    Si1187   Si       0.18710    0.39986    0.44828    1.000
    Si1188   Si       0.19278    0.46844    0.47123    1.000
    Si1189   Si       0.18083    0.30636    0.58431    1.000
    Si1190   Si       0.20983    0.31963    0.51711    1.000
    N1191    N        0.21237    0.36077    0.53379    1.000
    N1192    N        0.17772    0.30185    0.54170    1.000
    N1193    N        0.22004    0.32476    0.59283    1.000
    N1194    N        0.18296    0.26225    0.59167    1.000
    Si1195   Si       0.17633    0.38394    0.52627    1.000
    N1196    N        0.17909    0.41914    0.55141    1.000
    Si1197   Si       0.21796    0.42593    0.57065    1.000
    N1198    N        0.21735    0.46151    0.59692    1.000
    N1199    N        0.16579    0.42658    0.61903    1.000
    N1200    N        0.17437    0.36862    0.64924    1.000
    N1201    N        0.19611    0.29501    0.64843    1.000
    Si1202   Si       0.19345    0.27082    0.74103    1.000
    Si1203   Si       0.21515    0.38155    0.63821    1.000
    Si1204   Si       0.16462    0.32540    0.64872    1.000
    N1205    N        0.18740    0.47219    0.66418    1.000
    Si1206   Si       0.20105    0.44582    0.63298    1.000
    N1207    N        0.17451    0.43841    0.73463    1.000
    Si1208   Si       0.16131    0.45843    0.69543    1.000
    N1209    N        0.19529    0.33261    0.83657    1.000
    Si1210   Si       0.20919    0.36835    0.85453    1.000
    Si1211   Si       0.17449    0.34899    0.76444    1.000
    N1212    N        0.19307    0.38314    0.78492    1.000
    N1213    N        0.19809    0.31475    0.74933    1.000
    N1214    N        0.20927    0.44322    0.80311    1.000
    Si1215   Si       0.17721    0.41480    0.81454    1.000
    Si1216   Si       0.20294    0.45762    0.76314    1.000
    N1217    N        0.17801    0.40013    0.85555    1.000
    N1218    N        0.19005    0.49811    0.76623    1.000
    N1219    N        0.19958    0.31834    0.93022    1.000
    Si1220   Si       0.20532    0.27549    0.93005    1.000
    Si1221   Si       0.19433    0.37060    0.99399    1.000
    Si1222   Si       0.20710    0.47445    0.89063    1.000
    N1223    N        0.19598    0.43314    0.91664    1.000
    N1224    N        0.16774    0.40553    0.97442    1.000
    N1225    N        0.21585    0.46283    0.98439    1.000
    Si1226   Si       0.18844    0.43979    0.95936    1.000
    Si1227   Si       0.22519    0.50162    0.96697    1.000
    Si1228   Si       0.16486    0.40513    0.89789    1.000
    N1229    N        0.19435    0.59582    0.09720    1.000
    N1230    N        0.19681    0.51800    0.08840    1.000
    Si1231   Si       0.17445    0.55764    0.09671    1.000
    N1232    N        0.20170    0.58979    0.00209    1.000
    Si1233   Si       0.16952    0.62967    0.10898    1.000
    Si1234   Si       0.18366    0.70239    0.07779    1.000
    N1235    N        0.18075    0.72944    0.04426    1.000
    N1236    N        0.19075    0.72509    0.11536    1.000
    Si1237   Si       0.19540    0.60141    0.21886    1.000
    N1238    N        0.21375    0.54117    0.17989    1.000
    Si1239   Si       0.17082    0.54446    0.17818    1.000
    N1240    N        0.17187    0.63189    0.24313    1.000
    N1241    N        0.22159    0.57567    0.24201    1.000
    N1242    N        0.22232    0.61108    0.18458    1.000
    Si1243   Si       0.17513    0.75416    0.14150    1.000
    Si1244   Si       0.17246    0.67292    0.23133    1.000
    N1245    N        0.17628    0.64615    0.14855    1.000
    Si1246   Si       0.21305    0.65385    0.17217    1.000
    N1247    N        0.21051    0.67429    0.21144    1.000
    N1248    N        0.19981    0.59263    0.36107    1.000
    N1249    N        0.17536    0.52863    0.33985    1.000
    N1250    N        0.17487    0.58903    0.29528    1.000
    Si1251   Si       0.21536    0.57863    0.28449    1.000
    Si1252   Si       0.16920    0.57130    0.33517    1.000
    Si1253   Si       0.22122    0.62576    0.33979    1.000
    N1254    N        0.19630    0.66058    0.33207    1.000
    Si1255   Si       0.19759    0.69616    0.35517    1.000
    N1256    N        0.17506    0.69641    0.26720    1.000
    Si1257   Si       0.16880    0.68125    0.30591    1.000
    Si1258   Si       0.19458    0.59689    0.40425    1.000
    N1259    N        0.17250    0.56283    0.42312    1.000
    N1260    N        0.19943    0.55416    0.48640    1.000
    N1261    N        0.17695    0.62438    0.48505    1.000
    Si1262   Si       0.20034    0.53590    0.44411    1.000
    N1263    N        0.16973    0.63157    0.41599    1.000
    N1264    N        0.19272    0.69039    0.46242    1.000
    N1265    N        0.18344    0.69587    0.39541    1.000
    N1266    N        0.21517    0.74691    0.42614    1.000
    Si1267   Si       0.20460    0.65746    0.48852    1.000
    Si1268   Si       0.21258    0.70492    0.42722    1.000
    N1269    N        0.21068    0.52176    0.55322    1.000
    Si1270   Si       0.17426    0.61236    0.57553    1.000
    Si1271   Si       0.17053    0.58427    0.50216    1.000
    N1272    N        0.17694    0.58124    0.54556    1.000
    Si1273   Si       0.17024    0.53846    0.55609    1.000
    N1274    N        0.20963    0.63156    0.59481    1.000
    N1275    N        0.20343    0.67256    0.52826    1.000
    Si1276   Si       0.19501    0.67499    0.61463    1.000
    N1277    N        0.16577    0.69171    0.58698    1.000
    Si1278   Si       0.22352    0.73613    0.61055    1.000
    N1279    N        0.19664    0.75929    0.58356    1.000
    Si1280   Si       0.19760    0.51340    0.66152    1.000
    N1281    N        0.18189    0.54469    0.72845    1.000
    Si1282   Si       0.19495    0.61358    0.64320    1.000
    Si1283   Si       0.19303    0.58695    0.72056    1.000
    N1284    N        0.17935    0.60833    0.68508    1.000
    N1285    N        0.21698    0.52589    0.62479    1.000
    N1286    N        0.20964    0.70869    0.64429    1.000
    N1287    N        0.20129    0.74518    0.70916    1.000
    Si1288   Si       0.18244    0.73540    0.67241    1.000
    N1289    N        0.19817    0.56228    0.79737    1.000
    N1290    N        0.17789    0.60978    0.75605    1.000
    Si1291   Si       0.18835    0.60453    0.79801    1.000
    Si1292   Si       0.17216    0.53695    0.77225    1.000
    Si1293   Si       0.17134    0.52231    0.86494    1.000
    N1294    N        0.21206    0.51174    0.86551    1.000
    N1295    N        0.21770    0.63361    0.81820    1.000
    N1296    N        0.17450    0.67201    0.79054    1.000
    N1297    N        0.17579    0.73636    0.82106    1.000
    Si1298   Si       0.21893    0.73612    0.82743    1.000
    Si1299   Si       0.21641    0.67002    0.79836    1.000
    Si1300   Si       0.17921    0.65375    0.75075    1.000
    N1301    N        0.22422    0.71814    0.86480    1.000
    Si1302   Si       0.20407    0.58456    0.89255    1.000
    N1303    N        0.18964    0.52821    0.96835    1.000
    Si1304   Si       0.18998    0.57141    0.96330    1.000
    N1305    N        0.19688    0.62776    0.89011    1.000
    N1306    N        0.21897    0.57863    0.93284    1.000
    N1307    N        0.16749    0.55928    0.88709    1.000
    N1308    N        0.20031    0.69339    0.92294    1.000
    N1309    N        0.16852    0.72509    0.97786    1.000
    Si1310   Si       0.20536    0.72348    0.95384    1.000
    N1311    N        0.18188    0.65592    0.98986    1.000
    Si1312   Si       0.18541    0.70753    0.88440    1.000
    Si1313   Si       0.22401    0.66366    0.98902    1.000
    N1314    N        0.22276    0.75542    0.92934    1.000
    Si1315   Si       0.22102    0.65506    0.91548    1.000
    N1316    N        0.18507    0.83730    0.07219    1.000
    Si1317   Si       0.20930    0.81007    0.10104    1.000
    Si1318   Si       0.17293    0.83867    0.03059    1.000
    N1319    N        0.21201    0.84308    0.01116    1.000
    Si1320   Si       0.20075    0.76736    0.03533    1.000
    N1321    N        0.17064    0.79483    0.01752    1.000
    Si1322   Si       0.19991    0.87544    0.09016    1.000
    N1323    N        0.22131    0.78097    0.07032    1.000
    N1324    N        0.17177    0.79147    0.11716    1.000
    N1325    N        0.20175    0.97212    0.04670    1.000
    Si1326   Si       0.20044    0.93518    0.02571    1.000
    N1327    N        0.19586    0.90593    0.05963    1.000
    Si1328   Si       0.18155    0.93554    0.09272    1.000
    N1329    N        0.21295    0.95907    0.11116    1.000
    N1330    N        0.17380    0.89969    0.11733    1.000
    Si1331   Si       0.18137    0.00697    0.03401    1.000
    N1332    N        0.21272    0.78175    0.23166    1.000
    N1333    N        0.20586    0.83984    0.13359    1.000
    Si1334   Si       0.17615    0.77813    0.20682    1.000
    N1335    N        0.20280    0.76364    0.17218    1.000
    Si1336   Si       0.16658    0.83057    0.14963    1.000
    N1337    N        0.18545    0.94074    0.17525    1.000
    Si1338   Si       0.18944    0.90115    0.15841    1.000
    N1339    N        0.18451    0.96392    0.24308    1.000
    Si1340   Si       0.21138    0.97011    0.15235    1.000
    N1341    N        0.19528    0.78501    0.34704    1.000
    N1342    N        0.21564    0.81726    0.29320    1.000
    Si1343   Si       0.18724    0.84847    0.28190    1.000
    Si1344   Si       0.21297    0.77789    0.27490    1.000
    N1345    N        0.17418    0.76194    0.28446    1.000
    N1346    N        0.21534    0.83857    0.36915    1.000
    N1347    N        0.22275    0.87529    0.27181    1.000
    N1348    N        0.21099    0.97110    0.34595    1.000
    N1349    N        0.20644    0.90322    0.34722    1.000
    Si1350   Si       0.16998    0.95705    0.34981    1.000
    Si1351   Si       0.16814    0.89759    0.32576    1.000
    N1352    N        0.16699    0.93661    0.30872    1.000
    Si1353   Si       0.17670    0.76735    0.43176    1.000
    N1354    N        0.19741    0.80576    0.42653    1.000
    Si1355   Si       0.20201    0.84525    0.44537    1.000
    N1356    N        0.18068    0.85017    0.48148    1.000
    Si1357   Si       0.18048    0.80982    0.38353    1.000
    Si1358   Si       0.21626    0.87902    0.38303    1.000
    N1359    N        0.19243    0.88062    0.42229    1.000
    N1360    N        0.22027    0.01054    0.42875    1.000
    N1361    N        0.20276    0.94804    0.44982    1.000
    Si1362   Si       0.19512    0.99099    0.45612    1.000
    Si1363   Si       0.17623    0.92257    0.42606    1.000
    N1364    N        0.19792    0.85478    0.55669    1.000
    Si1365   Si       0.20541    0.77565    0.54421    1.000
    N1366    N        0.17894    0.79727    0.51929    1.000
    Si1367   Si       0.16877    0.84129    0.52260    1.000
    N1368    N        0.16860    0.87334    0.61775    1.000
    Si1369   Si       0.19238    0.88897    0.58443    1.000
    N1370    N        0.18552    0.98890    0.56507    1.000
    N1371    N        0.21065    0.92249    0.51582    1.000
    Si1372   Si       0.16877    0.92138    0.52534    1.000
    Si1373   Si       0.16768    0.99609    0.52415    1.000
    N1374    N        0.20046    0.00503    0.49699    1.000
    Si1375   Si       0.17287    0.80838    0.67136    1.000
    Si1376   Si       0.17016    0.76354    0.73460    1.000
    N1377    N        0.20467    0.83523    0.65671    1.000
    Si1378   Si       0.17556    0.86940    0.65973    1.000
    N1379    N        0.17868    0.77213    0.64723    1.000
    N1380    N        0.16791    0.96947    0.62699    1.000
    N1381    N        0.16990    0.91091    0.67360    1.000
    N1382    N        0.18737    0.77888    0.77056    1.000
    N1383    N        0.21161    0.84863    0.83152    1.000
    Si1384   Si       0.18707    0.83311    0.86267    1.000
    Si1385   Si       0.20485    0.88091    0.80355    1.000
    Si1386   Si       0.22979    0.78365    0.77716    1.000
    N1387    N        0.19397    0.92118    0.81563    1.000
    Si1388   Si       0.19983    0.94469    0.85150    1.000
    N1389    N        0.17633    0.97857    0.78378    1.000
    Si1390   Si       0.21812    0.98374    0.79624    1.000
    N1391    N        0.22757    0.97573    0.83770    1.000
    N1392    N        0.18551    0.92568    0.74147    1.000
    N1393    N        0.21211    0.81088    0.89071    1.000
    Si1394   Si       0.20470    0.85414    0.96880    1.000
    Si1395   Si       0.19017    0.77730    0.90909    1.000
    N1396    N        0.16427    0.84388    0.96539    1.000
    N1397    N        0.21469    0.96262    0.94672    1.000
    N1398    N        0.20961    0.89039    0.94532    1.000
    Si1399   Si       0.18888    0.89894    0.90789    1.000
    Si1400   Si       0.17270    0.95237    0.95198    1.000
    N1401    N        0.17213    0.93253    0.99208    1.000
    N1402    N        0.21992    0.91905    0.88305    1.000
    Si1403   Si       0.24091    0.05757    0.06276    1.000
    N1404    N        0.24940    0.05288    0.01753    1.000
    N1405    N        0.24060    0.01838    0.08397    1.000
    N1406    N        0.23459    0.09874    0.07981    1.000
    N1407    N        0.25183    0.12339    0.01622    1.000
    Si1408   Si       0.27981    0.09891    0.10232    1.000
    Si1409   Si       0.28465    0.03568    0.00093    1.000
    Si1410   Si       0.25025    0.13445    0.05931    1.000
    N1411    N        0.26567    0.22740    0.04702    1.000
    Si1412   Si       0.24540    0.20655    0.07899    1.000
    N1413    N        0.22812    0.17105    0.06127    1.000
    N1414    N        0.28176    0.20446    0.10633    1.000
    Si1415   Si       0.23711    0.04863    0.15512    1.000
    N1416    N        0.24570    0.11508    0.21460    1.000
    Si1417   Si       0.27146    0.11448    0.17931    1.000
    N1418    N        0.23979    0.05196    0.19818    1.000
    N1419    N        0.26350    0.08760    0.14235    1.000
    N1420    N        0.28286    0.02977    0.15832    1.000
    Si1421   Si       0.28288    0.04618    0.20028    1.000
    N1422    N        0.26751    0.23382    0.17030    1.000
    N1423    N        0.25836    0.15567    0.16809    1.000
    Si1424   Si       0.26366    0.19554    0.18947    1.000
    N1425    N        0.23729    0.18848    0.22488    1.000
    Si1426   Si       0.24251    0.14821    0.24175    1.000
    N1427    N        0.25511    0.10618    0.31845    1.000
    N1428    N        0.24624    0.02502    0.31686    1.000
    Si1429   Si       0.27025    0.08600    0.35391    1.000
    Si1430   Si       0.22525    0.02957    0.27766    1.000
    N1431    N        0.27921    0.15110    0.26517    1.000
    Si1432   Si       0.26706    0.20820    0.31124    1.000
    N1433    N        0.26920    0.24224    0.33868    1.000
    Si1434   Si       0.25894    0.16056    0.36656    1.000
    N1435    N        0.27765    0.17081    0.32905    1.000
    N1436    N        0.28261    0.22200    0.27225    1.000
    Si1437   Si       0.24997    0.09084    0.46679    1.000
    N1438    N        0.25763    0.05723    0.49387    1.000
    N1439    N        0.27564    0.12188    0.37888    1.000
    Si1440   Si       0.23115    0.04509    0.40629    1.000
    N1441    N        0.27048    0.05819    0.38880    1.000
    N1442    N        0.23104    0.12121    0.48951    1.000
    N1443    N        0.22361    0.07714    0.43497    1.000
    Si1444   Si       0.26658    0.23180    0.38119    1.000
    N1445    N        0.27780    0.19054    0.39216    1.000
    N1446    N        0.25245    0.25578    0.45577    1.000
    Si1447   Si       0.24290    0.08047    0.57621    1.000
    N1448    N        0.27863    0.11781    0.54873    1.000
    Si1449   Si       0.24258    0.13244    0.52983    1.000
    N1450    N        0.23187    0.09457    0.61616    1.000
    N1451    N        0.28015    0.05920    0.58593    1.000
    Si1452   Si       0.28132    0.01719    0.57415    1.000
    N1453    N        0.23452    0.22606    0.57416    1.000
    N1454    N        0.25600    0.16771    0.61277    1.000
    N1455    N        0.27406    0.22720    0.51149    1.000
    Si1456   Si       0.26052    0.20443    0.54786    1.000
    Si1457   Si       0.24508    0.21162    0.61426    1.000
    N1458    N        0.23307    0.17547    0.53445    1.000
    Si1459   Si       0.24644    0.25749    0.49836    1.000
    N1460    N        0.24790    0.12014    0.72460    1.000
    N1461    N        0.26181    0.18837    0.70867    1.000
    Si1462   Si       0.25675    0.14959    0.69348    1.000
    N1463    N        0.22985    0.24895    0.72922    1.000
    Si1464   Si       0.22918    0.20737    0.73456    1.000
    N1465    N        0.27365    0.03713    0.85226    1.000
    N1466    N        0.27284    0.06621    0.75618    1.000
    Si1467   Si       0.23366    0.04650    0.75901    1.000
    Si1468   Si       0.28192    0.10898    0.74895    1.000
    Si1469   Si       0.27921    0.07292    0.87319    1.000
    N1470    N        0.28609    0.10534    0.84387    1.000
    N1471    N        0.24851    0.16261    0.83380    1.000
    Si1472   Si       0.25949    0.23867    0.79490    1.000
    N1473    N        0.23920    0.20328    0.77812    1.000
    Si1474   Si       0.28533    0.14263    0.82261    1.000
    Si1475   Si       0.25436    0.11638    0.92814    1.000
    N1476    N        0.24684    0.08185    0.90156    1.000
    Si1477   Si       0.26790    0.23159    0.92303    1.000
    N1478    N        0.27384    0.20997    0.88428    1.000
    N1479    N        0.24164    0.21067    0.95562    1.000
    Si1480   Si       0.24988    0.17364    0.87761    1.000
    N1481    N        0.26923    0.14254    0.89869    1.000
    Si1482   Si       0.23734    0.30270    0.03067    1.000
    N1483    N        0.27901    0.29913    0.04287    1.000
    N1484    N        0.25806    0.37297    0.06830    1.000
    N1485    N        0.27846    0.27631    0.11622    1.000
    N1486    N        0.27137    0.43711    0.99784    1.000
    Si1487   Si       0.24030    0.46228    0.02293    1.000
    N1488    N        0.23636    0.50898    0.02706    1.000
    N1489    N        0.27844    0.46447    0.05255    1.000
    N1490    N        0.26049    0.35202    0.13136    1.000
    N1491    N        0.25092    0.30095    0.17664    1.000
    N1492    N        0.25045    0.30618    0.23883    1.000
    Si1493   Si       0.27827    0.31269    0.14076    1.000
    Si1494   Si       0.23402    0.25970    0.17750    1.000
    N1495    N        0.26569    0.44864    0.12093    1.000
    N1496    N        0.24205    0.42668    0.18503    1.000
    Si1497   Si       0.23041    0.50068    0.18810    1.000
    Si1498   Si       0.27836    0.44726    0.19164    1.000
    Si1499   Si       0.23006    0.43915    0.14470    1.000
    N1500    N        0.27249    0.48949    0.18944    1.000
    Si1501   Si       0.26900    0.28350    0.32798    1.000
    N1502    N        0.25805    0.36609    0.28242    1.000
    N1503    N        0.22733    0.29527    0.33686    1.000
    Si1504   Si       0.27769    0.32811    0.26668    1.000
    N1505    N        0.24548    0.35087    0.37352    1.000
    N1506    N        0.26137    0.48345    0.27790    1.000
    N1507    N        0.23442    0.48931    0.35083    1.000
    N1508    N        0.26260    0.34333    0.45699    1.000
    Si1509   Si       0.22197    0.33650    0.44260    1.000
    Si1510   Si       0.27146    0.50760    0.43084    1.000
    N1511    N        0.25506    0.47007    0.42028    1.000
    N1512    N        0.27689    0.43780    0.47984    1.000
    Si1513   Si       0.23340    0.38697    0.39426    1.000
    N1514    N        0.22364    0.48683    0.49612    1.000
    Si1515   Si       0.25178    0.45916    0.37728    1.000
    Si1516   Si       0.25371    0.43551    0.44493    1.000
    N1517    N        0.26690    0.40092    0.42037    1.000
    Si1518   Si       0.23499    0.35831    0.57049    1.000
    N1519    N        0.24865    0.29877    0.50980    1.000
    N1520    N        0.27872    0.35478    0.57073    1.000
    N1521    N        0.25199    0.43844    0.54458    1.000
    Si1522   Si       0.25671    0.46424    0.51064    1.000
    Si1523   Si       0.22538    0.50174    0.58914    1.000
    N1524    N        0.22139    0.39070    0.59562    1.000
    N1525    N        0.27463    0.30089    0.62928    1.000
    N1526    N        0.24299    0.35208    0.65637    1.000
    N1527    N        0.25906    0.30552    0.71174    1.000
    Si1528   Si       0.23387    0.31630    0.63451    1.000
    N1529    N        0.25413    0.36390    0.72759    1.000
    Si1530   Si       0.26732    0.34269    0.69011    1.000
    Si1531   Si       0.27116    0.26616    0.72554    1.000
    Si1532   Si       0.24023    0.32669    0.74632    1.000
    Si1533   Si       0.27106    0.50698    0.67804    1.000
    N1534    N        0.27893    0.47304    0.65035    1.000
    N1535    N        0.23169    0.42090    0.65288    1.000
    N1536    N        0.27764    0.42342    0.70495    1.000
    N1537    N        0.23841    0.46934    0.73927    1.000
    Si1538   Si       0.27311    0.43056    0.66144    1.000
    Si1539   Si       0.28319    0.39415    0.73583    1.000
    Si1540   Si       0.22066    0.51234    0.73381    1.000
    N1541    N        0.24533    0.33820    0.78787    1.000
    N1542    N        0.25741    0.31459    0.85539    1.000
    Si1543   Si       0.23094    0.31050    0.82055    1.000
    Si1544   Si       0.23676    0.38023    0.79093    1.000
    N1545    N        0.22870    0.26678    0.81092    1.000
    N1546    N        0.28145    0.26813    0.76899    1.000
    N1547    N        0.27963    0.45997    0.81679    1.000
    N1548    N        0.23875    0.39100    0.83352    1.000
    N1549    N        0.26714    0.40747    0.77535    1.000
    Si1550   Si       0.24266    0.43764    0.82926    1.000
    N1551    N        0.23658    0.44702    0.87039    1.000
    N1552    N        0.24700    0.26850    0.91618    1.000
    N1553    N        0.26553    0.33104    0.92916    1.000
    Si1554   Si       0.26762    0.30152    0.89785    1.000
    Si1555   Si       0.22704    0.34997    0.93040    1.000
    N1556    N        0.22634    0.37931    0.96278    1.000
    N1557    N        0.24630    0.27565    0.99546    1.000
    N1558    N        0.22298    0.37542    0.89412    1.000
    Si1559   Si       0.23556    0.41662    0.90197    1.000
    Si1560   Si       0.27283    0.50138    0.92270    1.000
    N1561    N        0.22936    0.48916    0.92300    1.000
    Si1562   Si       0.26347    0.40451    0.97125    1.000
    N1563    N        0.26791    0.42150    0.93207    1.000
    N1564    N        0.24524    0.57524    0.05617    1.000
    Si1565   Si       0.23708    0.59358    0.09362    1.000
    Si1566   Si       0.23840    0.60200    0.02027    1.000
    Si1567   Si       0.26592    0.53521    0.04660    1.000
    N1568    N        0.26437    0.62992    0.08981    1.000
    N1569    N        0.27651    0.52170    0.08672    1.000
    N1570    N        0.24008    0.64488    0.02680    1.000
    Si1571   Si       0.25508    0.66473    0.06292    1.000
    N1572    N        0.26560    0.73452    0.11132    1.000
    Si1573   Si       0.22966    0.70878    0.11991    1.000
    N1574    N        0.22546    0.68851    0.08076    1.000
    N1575    N        0.25176    0.57207    0.13002    1.000
    Si1576   Si       0.24164    0.57231    0.17128    1.000
    Si1577   Si       0.26477    0.57423    0.23432    1.000
    N1578    N        0.27548    0.56016    0.19522    1.000
    N1579    N        0.27871    0.61436    0.24690    1.000
    Si1580   Si       0.24283    0.69389    0.22855    1.000
    N1581    N        0.27617    0.67146    0.20899    1.000
    Si1582   Si       0.27736    0.69794    0.17258    1.000
    N1583    N        0.23753    0.68725    0.15532    1.000
    N1584    N        0.25528    0.73145    0.20587    1.000
    Si1585   Si       0.26779    0.52419    0.29454    1.000
    N1586    N        0.23793    0.61072    0.30295    1.000
    Si1587   Si       0.27583    0.62187    0.29065    1.000
    N1588    N        0.22770    0.53960    0.30137    1.000
    N1589    N        0.24828    0.76110    0.29698    1.000
    N1590    N        0.26238    0.64063    0.35854    1.000
    N1591    N        0.25078    0.69373    0.27050    1.000
    N1592    N        0.23780    0.71096    0.35622    1.000
    Si1593   Si       0.25387    0.74513    0.33641    1.000
    N1594    N        0.23403    0.60727    0.41773    1.000
    Si1595   Si       0.26219    0.57470    0.41848    1.000
    N1596    N        0.24104    0.53822    0.42972    1.000
    N1597    N        0.27950    0.57193    0.37842    1.000
    N1598    N        0.24578    0.67963    0.41365    1.000
    Si1599   Si       0.25425    0.64221    0.43328    1.000
    Si1600   Si       0.26376    0.68143    0.37415    1.000
    N1601    N        0.24327    0.64460    0.47721    1.000
    N1602    N        0.25472    0.57137    0.58701    1.000
    N1603    N        0.26171    0.54545    0.51514    1.000
    Si1604   Si       0.24714    0.61226    0.57975    1.000
    Si1605   Si       0.27256    0.54527    0.55757    1.000
    N1606    N        0.25822    0.61986    0.53964    1.000
    N1607    N        0.26936    0.50924    0.58711    1.000
    Si1608   Si       0.22199    0.52819    0.51245    1.000
    N1609    N        0.22466    0.74030    0.52556    1.000
    N1610    N        0.28007    0.63676    0.60107    1.000
    N1611    N        0.27032    0.68822    0.52394    1.000
    N1612    N        0.23585    0.69977    0.58671    1.000
    Si1613   Si       0.27207    0.64941    0.50868    1.000
    Si1614   Si       0.27320    0.68049    0.59960    1.000
    Si1615   Si       0.23282    0.69943    0.54242    1.000
    Si1616   Si       0.24941    0.55390    0.62746    1.000
    N1617    N        0.23075    0.58742    0.64736    1.000
    N1618    N        0.23721    0.59266    0.71712    1.000
    Si1619   Si       0.25012    0.61183    0.67668    1.000
    N1620    N        0.23005    0.51493    0.69024    1.000
    Si1621   Si       0.26744    0.59443    0.74646    1.000
    N1622    N        0.22895    0.64794    0.65987    1.000
    N1623    N        0.24534    0.69647    0.70684    1.000
    N1624    N        0.27914    0.69220    0.64299    1.000
    Si1625   Si       0.24245    0.68850    0.66487    1.000
    Si1626   Si       0.25931    0.67373    0.74220    1.000
    Si1627   Si       0.24258    0.73790    0.71814    1.000
    N1628    N        0.25769    0.76076    0.62540    1.000
    Si1629   Si       0.24863    0.60652    0.82834    1.000
    N1630    N        0.25607    0.59087    0.78762    1.000
    Si1631   Si       0.24158    0.54989    0.79609    1.000
    N1632    N        0.26391    0.52914    0.82652    1.000
    N1633    N        0.25136    0.53332    0.75681    1.000
    Si1634   Si       0.24764    0.53528    0.86659    1.000
    N1635    N        0.22895    0.57666    0.85836    1.000
    N1636    N        0.22236    0.65948    0.75548    1.000
    N1637    N        0.23968    0.70781    0.80323    1.000
    Si1638   Si       0.26452    0.69745    0.86658    1.000
    Si1639   Si       0.25273    0.60245    0.94932    1.000
    N1640    N        0.26791    0.59260    0.98920    1.000
    N1641    N        0.27422    0.53613    0.89878    1.000
    N1642    N        0.26677    0.51326    0.96446    1.000
    N1643    N        0.28260    0.60357    0.91936    1.000
    Si1644   Si       0.26638    0.75296    0.91588    1.000
    Si1645   Si       0.26058    0.73833    0.98683    1.000
    N1646    N        0.25815    0.66362    0.89269    1.000
    N1647    N        0.28700    0.73055    0.88526    1.000
    N1648    N        0.23556    0.64132    0.95290    1.000
    N1649    N        0.23278    0.70670    0.98206    1.000
    Si1650   Si       0.26091    0.77104    0.08905    1.000
    N1651    N        0.23504    0.77042    0.00554    1.000
    N1652    N        0.25670    0.81037    0.11130    1.000
    N1653    N        0.24134    0.88393    0.10018    1.000
    N1654    N        0.28059    0.82034    0.01579    1.000
    Si1655   Si       0.24191    0.81223    0.99756    1.000
    Si1656   Si       0.27059    0.90507    0.07792    1.000
    N1657    N        0.26861    0.95016    0.06277    1.000
    Si1658   Si       0.23611    0.97731    0.07743    1.000
    Si1659   Si       0.27399    0.93186    0.02167    1.000
    N1660    N        0.23605    0.93102    0.00349    1.000
    N1661    N        0.27779    0.89083    0.03860    1.000
    Si1662   Si       0.23918    0.77174    0.19729    1.000
    Si1663   Si       0.24267    0.86271    0.14005    1.000
    N1664    N        0.27030    0.80047    0.18901    1.000
    N1665    N        0.25146    0.92960    0.22787    1.000
    N1666    N        0.25565    0.96413    0.16652    1.000
    Si1667   Si       0.25667    0.92356    0.18592    1.000
    N1668    N        0.23011    0.89304    0.16850    1.000
    Si1669   Si       0.24994    0.84179    0.28357    1.000
    N1670    N        0.26769    0.83418    0.32153    1.000
    N1671    N        0.26369    0.78208    0.35747    1.000
    Si1672   Si       0.23375    0.80918    0.33930    1.000
    N1673    N        0.28189    0.84543    0.25391    1.000
    Si1674   Si       0.25145    0.90613    0.26575    1.000
    N1675    N        0.27355    0.93699    0.33987    1.000
    Si1676   Si       0.23127    0.93686    0.33054    1.000
    N1677    N        0.23420    0.93939    0.28750    1.000
    N1678    N        0.24614    0.00075    0.25184    1.000
    Si1679   Si       0.22567    0.96218    0.25129    1.000
    Si1680   Si       0.27571    0.81937    0.46171    1.000
    N1681    N        0.27551    0.79905    0.42331    1.000
    N1682    N        0.24738    0.78741    0.47838    1.000
    N1683    N        0.24507    0.84998    0.45120    1.000
    Si1684   Si       0.23573    0.78538    0.43328    1.000
    Si1685   Si       0.27050    0.87834    0.43133    1.000
    Si1686   Si       0.23225    0.93501    0.47907    1.000
    N1687    N        0.26362    0.96567    0.48399    1.000
    N1688    N        0.25747    0.88823    0.39196    1.000
    N1689    N        0.26345    0.91254    0.45617    1.000
    N1690    N        0.26153    0.86865    0.53600    1.000
    N1691    N        0.25960    0.83664    0.60201    1.000
    Si1692   Si       0.25669    0.77121    0.51663    1.000
    Si1693   Si       0.23894    0.83952    0.56192    1.000
    N1694    N        0.24124    0.79929    0.54561    1.000
    Si1695   Si       0.24558    0.90827    0.54329    1.000
    Si1696   Si       0.26938    0.90650    0.61373    1.000
    N1697    N        0.23486    0.90335    0.58683    1.000
    N1698    N        0.24932    0.99730    0.59704    1.000
    N1699    N        0.27918    0.93482    0.54654    1.000
    N1700    N        0.28017    0.01049    0.53064    1.000
    N1701    N        0.26395    0.86546    0.71596    1.000
    Si1702   Si       0.24671    0.84193    0.64308    1.000
    N1703    N        0.27364    0.81778    0.66717    1.000
    N1704    N        0.27702    0.75307    0.69594    1.000
    Si1705   Si       0.28467    0.77446    0.65848    1.000
    Si1706   Si       0.26660    0.98736    0.63656    1.000
    Si1707   Si       0.26782    0.90166    0.68908    1.000
    Si1708   Si       0.24952    0.97833    0.71304    1.000
    N1709    N        0.26043    0.88283    0.65140    1.000
    N1710    N        0.27808    0.94572    0.62876    1.000
    N1711    N        0.24236    0.99454    0.67245    1.000
    N1712    N        0.24374    0.93289    0.70977    1.000
    Si1713   Si       0.24357    0.81973    0.82630    1.000
    N1714    N        0.24920    0.82291    0.78043    1.000
    Si1715   Si       0.26404    0.85994    0.76229    1.000
    N1716    N        0.23147    0.77685    0.82053    1.000
    N1717    N        0.28025    0.82980    0.84690    1.000
    N1718    N        0.25440    0.75787    0.75460    1.000
    N1719    N        0.23537    0.88915    0.77239    1.000
    N1720    N        0.24317    0.95938    0.77311    1.000
    Si1721   Si       0.22795    0.92505    0.74802    1.000
    Si1722   Si       0.24271    0.00789    0.86122    1.000
    Si1723   Si       0.28477    0.97061    0.77528    1.000
    N1724    N        0.25967    0.86401    0.89799    1.000
    Si1725   Si       0.24720    0.82530    0.91374    1.000
    N1726    N        0.23607    0.82509    0.95505    1.000
    N1727    N        0.27882    0.79625    0.90545    1.000
    Si1728   Si       0.25736    0.90653    0.89899    1.000
    N1729    N        0.25849    0.99760    0.90044    1.000
    Si1730   Si       0.23882    0.99826    0.94004    1.000
    Si1731   Si       0.23127    0.92523    0.96105    1.000
    N1732    N        0.26851    0.92043    0.93926    1.000
    N1733    N        0.26547    0.00853    0.97272    1.000
    Si1734   Si       0.32076    0.05175    0.05074    1.000
    N1735    N        0.31285    0.07179    0.01022    1.000
    N1736    N        0.28780    0.06555    0.07616    1.000
    N1737    N        0.31000    0.01306    0.03307    1.000
    N1738    N        0.32520    0.13394    0.00142    1.000
    Si1739   Si       0.28841    0.10892    0.00084    1.000
    Si1740   Si       0.33839    0.17111    0.01353    1.000
    Si1741   Si       0.30863    0.17420    0.08911    1.000
    Si1742   Si       0.30752    0.22956    0.04149    1.000
    N1743    N        0.32311    0.19012    0.04887    1.000
    N1744    N        0.31268    0.24698    0.00297    1.000
    N1745    N        0.34119    0.16817    0.11841    1.000
    N1746    N        0.28678    0.13710    0.08178    1.000
    N1747    N        0.34789    0.11628    0.24297    1.000
    N1748    N        0.32131    0.09969    0.12186    1.000
    Si1749   Si       0.30900    0.06628    0.14685    1.000
    N1750    N        0.30736    0.03278    0.23454    1.000
    N1751    N        0.30462    0.08374    0.18734    1.000
    Si1752   Si       0.32359    0.23074    0.19864    1.000
    N1753    N        0.32981    0.23102    0.15473    1.000
    N1754    N        0.30279    0.19494    0.21168    1.000
    Si1755   Si       0.29084    0.23699    0.13230    1.000
    N1756    N        0.32530    0.11941    0.30751    1.000
    N1757    N        0.30366    0.06004    0.33669    1.000
    Si1758   Si       0.33593    0.07836    0.31407    1.000
    Si1759   Si       0.28841    0.01642    0.32865    1.000
    Si1760   Si       0.28553    0.13536    0.30448    1.000
    N1761    N        0.33950    0.18376    0.27202    1.000
    Si1762   Si       0.29982    0.18694    0.25293    1.000
    Si1763   Si       0.30523    0.25806    0.26402    1.000
    N1764    N        0.28691    0.10510    0.44932    1.000
    Si1765   Si       0.31239    0.04682    0.38018    1.000
    N1766    N        0.33200    0.08699    0.38945    1.000
    Si1767   Si       0.30260    0.11166    0.40928    1.000
    N1768    N        0.33344    0.04112    0.48065    1.000
    N1769    N        0.33856    0.02547    0.40954    1.000
    Si1770   Si       0.31630    0.13487    0.46517    1.000
    Si1771   Si       0.31405    0.19023    0.41493    1.000
    N1772    N        0.30155    0.15912    0.49830    1.000
    N1773    N        0.29753    0.25614    0.40286    1.000
    Si1774   Si       0.30386    0.20209    0.49565    1.000
    Si1775   Si       0.29452    0.25307    0.44506    1.000
    N1776    N        0.32404    0.14755    0.42356    1.000
    N1777    N        0.31474    0.21377    0.45349    1.000
    Si1778   Si       0.31010    0.09510    0.56938    1.000
    N1779    N        0.32103    0.06787    0.53586    1.000
    N1780    N        0.30385    0.11182    0.61112    1.000
    Si1781   Si       0.29657    0.04212    0.50711    1.000
    N1782    N        0.33991    0.12587    0.55634    1.000
    Si1783   Si       0.33840    0.01408    0.61473    1.000
    Si1784   Si       0.30896    0.15036    0.54054    1.000
    N1785    N        0.29913    0.18999    0.55720    1.000
    Si1786   Si       0.31854    0.20633    0.59251    1.000
    N1787    N        0.33016    0.17615    0.61996    1.000
    N1788    N        0.28563    0.22896    0.61301    1.000
    Si1789   Si       0.30452    0.06961    0.62473    1.000
    N1790    N        0.30167    0.01440    0.63998    1.000
    N1791    N        0.32581    0.03212    0.72299    1.000
    N1792    N        0.31587    0.11300    0.72494    1.000
    Si1793   Si       0.31939    0.11203    0.68210    1.000
    N1794    N        0.30742    0.07276    0.66842    1.000
    Si1795   Si       0.32019    0.02047    0.67880    1.000
    N1796    N        0.33744    0.26218    0.64025    1.000
    N1797    N        0.33991    0.20211    0.68078    1.000
    Si1798   Si       0.33986    0.24640    0.68071    1.000
    Si1799   Si       0.29506    0.15029    0.62749    1.000
    Si1800   Si       0.30405    0.20152    0.70897    1.000
    N1801    N        0.30111    0.24600    0.70253    1.000
    N1802    N        0.28974    0.14084    0.66872    1.000
    Si1803   Si       0.30779    0.04150    0.76090    1.000
    Si1804   Si       0.30690    0.01846    0.83213    1.000
    N1805    N        0.33751    0.07221    0.77611    1.000
    N1806    N        0.33815    0.04700    0.84079    1.000
    N1807    N        0.29942    0.00838    0.78951    1.000
    N1808    N        0.29318    0.13687    0.78221    1.000
    N1809    N        0.29353    0.21790    0.81554    1.000
    N1810    N        0.31494    0.15991    0.85268    1.000
    Si1811   Si       0.30465    0.20429    0.85465    1.000
    Si1812   Si       0.32577    0.21364    0.78746    1.000
    Si1813   Si       0.33035    0.15591    0.76603    1.000
    N1814    N        0.33885    0.22789    0.86803    1.000
    N1815    N        0.31592    0.19263    0.74914    1.000
    Si1816   Si       0.32456    0.09896    0.93531    1.000
    N1817    N        0.31393    0.08341    0.89615    1.000
    N1818    N        0.33427    0.01797    0.90830    1.000
    Si1819   Si       0.30780    0.12880    0.88232    1.000
    N1820    N        0.28646    0.10168    0.95806    1.000
    Si1821   Si       0.33357    0.23463    0.96673    1.000
    N1822    N        0.31114    0.24489    0.93036    1.000
    N1823    N        0.33926    0.19106    0.97441    1.000
    N1824    N        0.33478    0.13864    0.91899    1.000
    N1825    N        0.31427    0.32937    0.09438    1.000
    Si1826   Si       0.29870    0.28975    0.08162    1.000
    Si1827   Si       0.28931    0.28565    0.00313    1.000
    Si1828   Si       0.28746    0.36538    0.09827    1.000
    N1829    N        0.32554    0.25519    0.07237    1.000
    Si1830   Si       0.30599    0.45328    0.01837    1.000
    N1831    N        0.31393    0.40137    0.09972    1.000
    N1832    N        0.32196    0.47037    0.11188    1.000
    N1833    N        0.33587    0.42079    0.02326    1.000
    Si1834   Si       0.34162    0.39985    0.06663    1.000
    N1835    N        0.32602    0.48686    0.99770    1.000
    Si1836   Si       0.28271    0.47923    0.09220    1.000
    N1837    N        0.30382    0.26616    0.22104    1.000
    N1838    N        0.31247    0.31016    0.16819    1.000
    N1839    N        0.29867    0.34016    0.22716    1.000
    Si1840   Si       0.33691    0.35628    0.24347    1.000
    Si1841   Si       0.28477    0.30326    0.20649    1.000
    Si1842   Si       0.33424    0.42640    0.21263    1.000
    N1843    N        0.29862    0.44196    0.23082    1.000
    Si1844   Si       0.30590    0.43236    0.12803    1.000
    N1845    N        0.31400    0.42946    0.17175    1.000
    N1846    N        0.29916    0.30468    0.35216    1.000
    N1847    N        0.32155    0.35162    0.28615    1.000
    N1848    N        0.29912    0.37908    0.34070    1.000
    N1849    N        0.28709    0.29104    0.28837    1.000
    Si1850   Si       0.28974    0.34588    0.36820    1.000
    Si1851   Si       0.29428    0.38326    0.29727    1.000
    N1852    N        0.30028    0.42590    0.29970    1.000
    Si1853   Si       0.29655    0.45735    0.27148    1.000
    Si1854   Si       0.30927    0.42105    0.34101    1.000
    N1855    N        0.33056    0.48495    0.27602    1.000
    N1856    N        0.29361    0.45436    0.36668    1.000
    Si1857   Si       0.28183    0.31720    0.48607    1.000
    Si1858   Si       0.32453    0.27748    0.37535    1.000
    Si1859   Si       0.29286    0.37152    0.43764    1.000
    N1860    N        0.30927    0.28544    0.46992    1.000
    N1861    N        0.30904    0.34604    0.40728    1.000
    Si1862   Si       0.31640    0.42326    0.48786    1.000
    N1863    N        0.32386    0.39370    0.45671    1.000
    Si1864   Si       0.33597    0.46722    0.37566    1.000
    N1865    N        0.31287    0.29195    0.58302    1.000
    Si1866   Si       0.29762    0.32926    0.60153    1.000
    Si1867   Si       0.30698    0.36846    0.54199    1.000
    N1868    N        0.33119    0.35122    0.61678    1.000
    N1869    N        0.30791    0.34433    0.50605    1.000
    Si1870   Si       0.30172    0.26966    0.61883    1.000
    N1871    N        0.31019    0.45405    0.58735    1.000
    N1872    N        0.31424    0.41007    0.53102    1.000
    N1873    N        0.29570    0.47712    0.52201    1.000
    Si1874   Si       0.29725    0.48712    0.61475    1.000
    Si1875   Si       0.29544    0.44255    0.54987    1.000
    Si1876   Si       0.33478    0.42848    0.60938    1.000
    Si1877   Si       0.33069    0.49490    0.49823    1.000
    Si1878   Si       0.33514    0.34675    0.72301    1.000
    N1879    N        0.31087    0.35009    0.68681    1.000
    Si1880   Si       0.32818    0.37377    0.65308    1.000
    N1881    N        0.33315    0.30733    0.74597    1.000
    Si1882   Si       0.28069    0.45999    0.72987    1.000
    N1883    N        0.29126    0.49915    0.71456    1.000
    N1884    N        0.30589    0.41014    0.64039    1.000
    N1885    N        0.32391    0.31327    0.81453    1.000
    Si1886   Si       0.31856    0.28630    0.78110    1.000
    Si1887   Si       0.29807    0.32316    0.84719    1.000
    N1888    N        0.32007    0.35847    0.86314    1.000
    N1889    N        0.32371    0.38121    0.74809    1.000
    N1890    N        0.32492    0.50030    0.84752    1.000
    Si1891   Si       0.29979    0.43124    0.79278    1.000
    N1892    N        0.33053    0.40806    0.81399    1.000
    Si1893   Si       0.29688    0.50306    0.81566    1.000
    N1894    N        0.31451    0.44840    0.75575    1.000
    Si1895   Si       0.33529    0.39889    0.85629    1.000
    Si1896   Si       0.33277    0.26191    0.89715    1.000
    Si1897   Si       0.30047    0.34027    0.95079    1.000
    N1898    N        0.31158    0.29886    0.88441    1.000
    N1899    N        0.31666    0.31135    0.97987    1.000
    N1900    N        0.29804    0.37673    0.97265    1.000
    N1901    N        0.34063    0.34484    0.93200    1.000
    Si1902   Si       0.34338    0.32932    0.89181    1.000
    N1903    N        0.30779    0.47791    0.91700    1.000
    Si1904   Si       0.33496    0.39563    0.98530    1.000
    Si1905   Si       0.30870    0.43037    0.92192    1.000
    Si1906   Si       0.33044    0.47087    0.88027    1.000
    N1907    N        0.31467    0.42901    0.87910    1.000
    N1908    N        0.31602    0.57879    0.10418    1.000
    Si1909   Si       0.30594    0.61943    0.08523    1.000
    N1910    N        0.29989    0.54530    0.02122    1.000
    N1911    N        0.30955    0.61242    0.04472    1.000
    Si1912   Si       0.30677    0.58795    0.00969    1.000
    Si1913   Si       0.28684    0.54995    0.11825    1.000
    Si1914   Si       0.31553    0.70398    0.03153    1.000
    Si1915   Si       0.29990    0.70789    0.10416    1.000
    N1916    N        0.29854    0.74086    0.01156    1.000
    N1917    N        0.29355    0.68986    0.06449    1.000
    N1918    N        0.33529    0.73445    0.10633    1.000
    N1919    N        0.34013    0.64152    0.10192    1.000
    Si1920   Si       0.30009    0.52432    0.18856    1.000
    N1921    N        0.31181    0.52892    0.14650    1.000
    N1922    N        0.32907    0.51501    0.21764    1.000
    N1923    N        0.32403    0.62890    0.17897    1.000
    N1924    N        0.33940    0.64118    0.23992    1.000
    N1925    N        0.31454    0.72288    0.18890    1.000
    Si1926   Si       0.29521    0.73741    0.22605    1.000
    Si1927   Si       0.33452    0.65522    0.14408    1.000
    Si1928   Si       0.30148    0.63845    0.21925    1.000
    N1929    N        0.30042    0.68231    0.13798    1.000
    N1930    N        0.30100    0.59520    0.31740    1.000
    N1931    N        0.29647    0.51984    0.32759    1.000
    Si1932   Si       0.30369    0.53868    0.36641    1.000
    Si1933   Si       0.29233    0.60949    0.35715    1.000
    Si1934   Si       0.34145    0.57926    0.31556    1.000
    Si1935   Si       0.32632    0.54604    0.24950    1.000
    N1936    N        0.34147    0.55804    0.35443    1.000
    N1937    N        0.28481    0.54853    0.26307    1.000
    Si1938   Si       0.33541    0.51114    0.31134    1.000
    Si1939   Si       0.32111    0.72986    0.35731    1.000
    N1940    N        0.30242    0.65754    0.29611    1.000
    N1941    N        0.29314    0.72680    0.32074    1.000
    N1942    N        0.31411    0.72096    0.26326    1.000
    Si1943   Si       0.28831    0.69780    0.28894    1.000
    Si1944   Si       0.29366    0.76065    0.28827    1.000
    N1945    N        0.28565    0.58126    0.45500    1.000
    N1946    N        0.32788    0.62222    0.37674    1.000
    Si1947   Si       0.33692    0.51855    0.43175    1.000
    Si1948   Si       0.29450    0.55226    0.48550    1.000
    Si1949   Si       0.31065    0.61549    0.45982    1.000
    N1950    N        0.30551    0.51364    0.40097    1.000
    N1951    N        0.30136    0.51417    0.46402    1.000
    N1952    N        0.31014    0.63778    0.49523    1.000
    Si1953   Si       0.32398    0.65909    0.39999    1.000
    N1954    N        0.29700    0.64258    0.42969    1.000
    N1955    N        0.32133    0.75833    0.39166    1.000
    N1956    N        0.30639    0.69278    0.37641    1.000
    N1957    N        0.31383    0.55588    0.55793    1.000
    N1958    N        0.33477    0.51336    0.61745    1.000
    N1959    N        0.33617    0.56842    0.49358    1.000
    N1960    N        0.30176    0.70336    0.57859    1.000
    Si1961   Si       0.30334    0.71469    0.53519    1.000
    N1962    N        0.34004    0.71359    0.51378    1.000
    Si1963   Si       0.34088    0.71843    0.59087    1.000
    N1964    N        0.33650    0.58500    0.62768    1.000
    N1965    N        0.30117    0.56833    0.73370    1.000
    Si1966   Si       0.32591    0.54572    0.64622    1.000
    Si1967   Si       0.31181    0.62038    0.63127    1.000
    N1968    N        0.29220    0.62014    0.66952    1.000
    Si1969   Si       0.34203    0.57229    0.71867    1.000
    Si1970   Si       0.29272    0.52900    0.74639    1.000
    N1971    N        0.28268    0.54097    0.65096    1.000
    N1972    N        0.33948    0.65441    0.63043    1.000
    Si1973   Si       0.32673    0.70641    0.73329    1.000
    N1974    N        0.32325    0.68199    0.69630    1.000
    Si1975   Si       0.31178    0.64035    0.70408    1.000
    Si1976   Si       0.32300    0.68524    0.65360    1.000
    N1977    N        0.28207    0.63645    0.73637    1.000
    Si1978   Si       0.32675    0.60084    0.85108    1.000
    N1979    N        0.31732    0.51765    0.78016    1.000
    N1980    N        0.28391    0.60968    0.85130    1.000
    Si1981   Si       0.31880    0.74256    0.85876    1.000
    N1982    N        0.30681    0.74478    0.81412    1.000
    N1983    N        0.29310    0.68672    0.83604    1.000
    N1984    N        0.29351    0.69377    0.76016    1.000
    Si1985   Si       0.33398    0.67845    0.84289    1.000
    Si1986   Si       0.28251    0.71337    0.79852    1.000
    N1987    N        0.32479    0.74915    0.74679    1.000
    N1988    N        0.32040    0.54869    0.95316    1.000
    Si1989   Si       0.30289    0.52226    0.98366    1.000
    N1990    N        0.33385    0.57503    0.88714    1.000
    Si1991   Si       0.30267    0.56502    0.91688    1.000
    N1992    N        0.33985    0.60488    0.98638    1.000
    N1993    N        0.33225    0.64316    0.86973    1.000
    N1994    N        0.28895    0.74009    0.95101    1.000
    N1995    N        0.33807    0.64906    0.93512    1.000
    N1996    N        0.32390    0.68479    0.99341    1.000
    Si1997   Si       0.32177    0.72622    0.97446    1.000
    Si1998   Si       0.29144    0.63428    0.89015    1.000
    N1999    N        0.31389    0.84873    0.07532    1.000
    Si2000   Si       0.30036    0.85426    0.03227    1.000
    Si2001   Si       0.30028    0.78269    0.02667    1.000
    N2002    N        0.29648    0.78342    0.06801    1.000
    Si2003   Si       0.29954    0.81578    0.09962    1.000
    N2004    N        0.33582    0.86116    0.00982    1.000
    Si2005   Si       0.33811    0.88103    0.09035    1.000
    N2006    N        0.33567    0.95198    0.04979    1.000
    Si2007   Si       0.32603    0.97784    0.01569    1.000
    N2008    N        0.30738    0.91170    0.10029    1.000
    Si2009   Si       0.30837    0.95393    0.08190    1.000
    N2010    N        0.31082    0.98180    0.11552    1.000
    N2011    N        0.30228    0.94705    0.99372    1.000
    N2012    N        0.32335    0.80219    0.13375    1.000
    N2013    N        0.32636    0.82524    0.19894    1.000
    Si2014   Si       0.29176    0.81433    0.22586    1.000
    Si2015   Si       0.29947    0.82272    0.16524    1.000
    N2016    N        0.28551    0.86025    0.14687    1.000
    N2017    N        0.29447    0.77592    0.24549    1.000
    N2018    N        0.33005    0.99020    0.17575    1.000
    Si2019   Si       0.29084    0.98586    0.15422    1.000
    N2020    N        0.33888    0.89692    0.23792    1.000
    N2021    N        0.31071    0.96464    0.23437    1.000
    N2022    N        0.30057    0.91631    0.18224    1.000
    Si2023   Si       0.31310    0.89539    0.14498    1.000
    Si2024   Si       0.30291    0.92202    0.22930    1.000
    N2025    N        0.31987    0.78816    0.30792    1.000
    Si2026   Si       0.31063    0.82750    0.32546    1.000
    Si2027   Si       0.31397    0.87683    0.26792    1.000
    N2028    N        0.33208    0.85588    0.29988    1.000
    N2029    N        0.31776    0.82624    0.36832    1.000
    N2030    N        0.29758    0.98492    0.29724    1.000
    Si2031   Si       0.30172    0.94323    0.30847    1.000
    Si2032   Si       0.29081    0.99642    0.25589    1.000
    N2033    N        0.29251    0.91259    0.27572    1.000
    N2034    N        0.30249    0.00472    0.36734    1.000
    N2035    N        0.30936    0.85490    0.43126    1.000
    Si2036   Si       0.29477    0.79253    0.38644    1.000
    Si2037   Si       0.32984    0.86078    0.39188    1.000
    N2038    N        0.30615    0.82676    0.49039    1.000
    Si2039   Si       0.33640    0.83416    0.45832    1.000
    N2040    N        0.28509    0.95157    0.40815    1.000
    Si2041   Si       0.31834    0.98544    0.40511    1.000
    N2042    N        0.32663    0.92239    0.46465    1.000
    Si2043   Si       0.29137    0.94617    0.45209    1.000
    N2044    N        0.31918    0.98041    0.45041    1.000
    N2045    N        0.32127    0.89950    0.37681    1.000
    Si2046   Si       0.28101    0.92031    0.37876    1.000
    Si2047   Si       0.29889    0.84903    0.52700    1.000
    N2048    N        0.31001    0.82032    0.55836    1.000
    Si2049   Si       0.30424    0.84198    0.59684    1.000
    Si2050   Si       0.32959    0.78335    0.54616    1.000
    N2051    N        0.29542    0.75859    0.53258    1.000
    N2052    N        0.34188    0.83406    0.61930    1.000
    N2053    N        0.32506    0.88465    0.52300    1.000
    N2054    N        0.30350    0.88718    0.59421    1.000
    N2055    N        0.33223    0.97225    0.51333    1.000
    Si2056   Si       0.31451    0.91003    0.55819    1.000
    N2057    N        0.32150    0.99788    0.57658    1.000
    Si2058   Si       0.28940    0.97056    0.51938    1.000
    Si2059   Si       0.29308    0.77268    0.73035    1.000
    Si2060   Si       0.29262    0.83884    0.69863    1.000
    N2061    N        0.30506    0.81363    0.73216    1.000
    N2062    N        0.32985    0.85266    0.68065    1.000
    N2063    N        0.32628    0.77937    0.66157    1.000
    Si2064   Si       0.34501    0.81845    0.66017    1.000
    N2065    N        0.33132    0.97674    0.68081    1.000
    N2066    N        0.28853    0.97585    0.73175    1.000
    Si2067   Si       0.31897    0.95242    0.71353    1.000
    N2068    N        0.30856    0.91427    0.69443    1.000
    N2069    N        0.30595    0.86653    0.77591    1.000
    Si2070   Si       0.33233    0.83244    0.76638    1.000
    Si2071   Si       0.28993    0.86880    0.86577    1.000
    N2072    N        0.33591    0.78139    0.86943    1.000
    Si2073   Si       0.33897    0.75794    0.78605    1.000
    N2074    N        0.30777    0.98135    0.85403    1.000
    N2075    N        0.30296    0.93841    0.80207    1.000
    Si2076   Si       0.32283    0.90794    0.77871    1.000
    Si2077   Si       0.31437    0.94077    0.84386    1.000
    N2078    N        0.29034    0.91090    0.86714    1.000
    N2079    N        0.33967    0.93448    0.74845    1.000
    Si2080   Si       0.30604    0.81299    0.87709    1.000
    N2081    N        0.32748    0.85206    0.88235    1.000
    Si2082   Si       0.30687    0.93249    0.95463    1.000
    N2083    N        0.33765    0.90383    0.94770    1.000
    N2084    N        0.32190    0.95894    0.92280    1.000
    Si2085   Si       0.30113    0.99134    0.89627    1.000
    N2086    N        0.35919    0.06149    0.06534    1.000
    N2087    N        0.38445    0.10537    0.01660    1.000
    Si2088   Si       0.36953    0.06719    0.10782    1.000
    Si2089   Si       0.39602    0.07116    0.04181    1.000
    N2090    N        0.38394    0.10969    0.11747    1.000
    N2091    N        0.38382    0.17800    0.02287    1.000
    N2092    N        0.37873    0.21999    0.09467    1.000
    N2093    N        0.38558    0.23974    0.03651    1.000
    Si2094   Si       0.36845    0.25545    0.07282    1.000
    Si2095   Si       0.39996    0.19765    0.06030    1.000
    Si2096   Si       0.40031    0.14306    0.00404    1.000
    Si2097   Si       0.39248    0.21956    0.99882    1.000
    N2098    N        0.36758    0.06164    0.21196    1.000
    Si2099   Si       0.34991    0.03618    0.24256    1.000
    N2100    N        0.35703    0.12859    0.17782    1.000
    Si2101   Si       0.34993    0.12809    0.13535    1.000
    N2102    N        0.34435    0.04260    0.13321    1.000
    Si2103   Si       0.34273    0.09741    0.20542    1.000
    Si2104   Si       0.39932    0.13928    0.18806    1.000
    Si2105   Si       0.35978    0.20785    0.13333    1.000
    N2106    N        0.36317    0.22652    0.21944    1.000
    N2107    N        0.39608    0.21449    0.15753    1.000
    Si2108   Si       0.39318    0.24124    0.19088    1.000
    N2109    N        0.37349    0.07496    0.33896    1.000
    N2110    N        0.35230    0.05360    0.28305    1.000
    Si2111   Si       0.39100    0.05562    0.30390    1.000
    N2112    N        0.39010    0.14497    0.29293    1.000
    Si2113   Si       0.36799    0.21736    0.26091    1.000
    Si2114   Si       0.39200    0.15350    0.33615    1.000
    Si2115   Si       0.35028    0.14211    0.27850    1.000
    N2116    N        0.34543    0.25091    0.28037    1.000
    N2117    N        0.39373    0.19598    0.33823    1.000
    N2118    N        0.34966    0.25196    0.34935    1.000
    Si2119   Si       0.37424    0.22085    0.36728    1.000
    N2120    N        0.37125    0.13839    0.37115    1.000
    Si2121   Si       0.37263    0.09487    0.37785    1.000
    Si2122   Si       0.35250    0.01845    0.45239    1.000
    N2123    N        0.35151    0.11219    0.47885    1.000
    N2124    N        0.39363    0.04679    0.45033    1.000
    Si2125   Si       0.37564    0.16347    0.40943    1.000
    N2126    N        0.35275    0.19826    0.39588    1.000
    Si2127   Si       0.35994    0.21143    0.46625    1.000
    N2128    N        0.37650    0.17275    0.45610    1.000
    N2129    N        0.37607    0.25059    0.46693    1.000
    Si2130   Si       0.38667    0.13884    0.48000    1.000
    Si2131   Si       0.38321    0.11973    0.55107    1.000
    N2132    N        0.38979    0.08233    0.52899    1.000
    Si2133   Si       0.35197    0.07613    0.50412    1.000
    N2134    N        0.40149    0.12044    0.58981    1.000
    N2135    N        0.34265    0.05604    0.60981    1.000
    Si2136   Si       0.36638    0.23120    0.53709    1.000
    N2137    N        0.35583    0.22755    0.58099    1.000
    Si2138   Si       0.36963    0.25619    0.61056    1.000
    N2139    N        0.39611    0.14917    0.52286    1.000
    N2140    N        0.34470    0.20700    0.50795    1.000
    Si2141   Si       0.39186    0.10916    0.68078    1.000
    Si2142   Si       0.36881    0.03881    0.71411    1.000
    N2143    N        0.36185    0.03416    0.67060    1.000
    N2144    N        0.37753    0.08128    0.71349    1.000
    N2145    N        0.35507    0.13167    0.66880    1.000
    Si2146   Si       0.35148    0.09615    0.74419    1.000
    N2147    N        0.39431    0.01027    0.73626    1.000
    Si2148   Si       0.35821    0.17253    0.65208    1.000
    N2149    N        0.39791    0.17823    0.63649    1.000
    N2150    N        0.40411    0.24761    0.63470    1.000
    Si2151   Si       0.36231    0.07234    0.81418    1.000
    N2152    N        0.36908    0.11076    0.83590    1.000
    N2153    N        0.39718    0.05130    0.79956    1.000
    Si2154   Si       0.39673    0.01158    0.78162    1.000
    N2155    N        0.36860    0.13599    0.75206    1.000
    Si2156   Si       0.35679    0.15320    0.83559    1.000
    N2157    N        0.38621    0.17647    0.85789    1.000
    N2158    N        0.34676    0.25196    0.78493    1.000
    N2159    N        0.34777    0.17632    0.79949    1.000
    N2160    N        0.38969    0.02195    0.94165    1.000
    Si2161   Si       0.39146    0.06415    0.93415    1.000
    N2162    N        0.38417    0.06645    0.89158    1.000
    N2163    N        0.35701    0.08129    0.95661    1.000
    Si2164   Si       0.39205    0.01076    0.98521    1.000
    Si2165   Si       0.34779    0.09644    0.99633    1.000
    Si2166   Si       0.34401    0.05034    0.88253    1.000
    N2167    N        0.39447    0.14720    0.95751    1.000
    Si2168   Si       0.35903    0.16964    0.94092    1.000
    N2169    N        0.37407    0.24870    0.96910    1.000
    N2170    N        0.37851    0.20323    0.91964    1.000
    Si2171   Si       0.37807    0.21386    0.87768    1.000
    N2172    N        0.36325    0.36051    0.06565    1.000
    N2173    N        0.37814    0.29472    0.08237    1.000
    Si2174   Si       0.35823    0.33047    0.09638    1.000
    Si2175   Si       0.38974    0.35781    0.03113    1.000
    N2176    N        0.36398    0.36288    0.99485    1.000
    N2177    N        0.37569    0.42589    0.07316    1.000
    N2178    N        0.38286    0.48260    0.03503    1.000
    Si2179   Si       0.37944    0.43941    0.03189    1.000
    Si2180   Si       0.36821    0.50385    0.00139    1.000
    Si2181   Si       0.39477    0.50566    0.07059    1.000
    Si2182   Si       0.40249    0.43663    0.10651    1.000
    N2183    N        0.36995    0.33537    0.13795    1.000
    N2184    N        0.36604    0.34356    0.21264    1.000
    N2185    N        0.38111    0.28378    0.18344    1.000
    Si2186   Si       0.35526    0.31943    0.17593    1.000
    Si2187   Si       0.35733    0.49019    0.23960    1.000
    Si2188   Si       0.39001    0.46880    0.17741    1.000
    Si2189   Si       0.34191    0.50391    0.12774    1.000
    N2190    N        0.37466    0.50281    0.15667    1.000
    N2191    N        0.39520    0.43850    0.14856    1.000
    N2192    N        0.36515    0.45710    0.21315    1.000
    N2193    N        0.34601    0.39789    0.24247    1.000
    N2194    N        0.37488    0.31380    0.31322    1.000
    N2195    N        0.35805    0.35769    0.36230    1.000
    Si2196   Si       0.36397    0.27116    0.31352    1.000
    Si2197   Si       0.35117    0.34930    0.31656    1.000
    N2198    N        0.37344    0.38608    0.30897    1.000
    Si2199   Si       0.37574    0.39652    0.35280    1.000
    Si2200   Si       0.38067    0.40806    0.27040    1.000
    N2201    N        0.35829    0.48616    0.33954    1.000
    N2202    N        0.38999    0.44814    0.28503    1.000
    N2203    N        0.34679    0.42742    0.36021    1.000
    Si2204   Si       0.39682    0.47709    0.31778    1.000
    Si2205   Si       0.35163    0.34195    0.40139    1.000
    N2206    N        0.37834    0.36068    0.43042    1.000
    N2207    N        0.35562    0.29887    0.39866    1.000
    N2208    N        0.36872    0.32068    0.48136    1.000
    Si2209   Si       0.35191    0.28152    0.48460    1.000
    Si2210   Si       0.39934    0.28374    0.39684    1.000
    Si2211   Si       0.36736    0.39280    0.45711    1.000
    N2212    N        0.39064    0.42509    0.44050    1.000
    Si2213   Si       0.37694    0.46523    0.45139    1.000
    N2214    N        0.35310    0.47903    0.41559    1.000
    N2215    N        0.34454    0.45451    0.48131    1.000
    N2216    N        0.37094    0.38840    0.50156    1.000
    N2217    N        0.38201    0.29062    0.58633    1.000
    Si2218   Si       0.36421    0.36579    0.58943    1.000
    N2219    N        0.35400    0.27233    0.52753    1.000
    Si2220   Si       0.34757    0.30050    0.56051    1.000
    Si2221   Si       0.35220    0.34987    0.50825    1.000
    N2222    N        0.34785    0.34491    0.55299    1.000
    N2223    N        0.36032    0.40781    0.57845    1.000
    Si2224   Si       0.37681    0.41455    0.53725    1.000
    Si2225   Si       0.39060    0.49393    0.54818    1.000
    N2226    N        0.39397    0.45453    0.53279    1.000
    N2227    N        0.39431    0.50170    0.59117    1.000
    N2228    N        0.34954    0.50618    0.53978    1.000
    N2229    N        0.37533    0.26636    0.69821    1.000
    Si2230   Si       0.37235    0.29571    0.72905    1.000
    N2231    N        0.37474    0.33600    0.71183    1.000
    Si2232   Si       0.39651    0.34921    0.67752    1.000
    N2233    N        0.39525    0.31595    0.65032    1.000
    N2234    N        0.37121    0.38142    0.65983    1.000
    Si2235   Si       0.35395    0.44886    0.73842    1.000
    Si2236   Si       0.37219    0.49031    0.62726    1.000
    N2237    N        0.39769    0.50245    0.66092    1.000
    N2238    N        0.35864    0.43421    0.69892    1.000
    Si2239   Si       0.38276    0.42235    0.66481    1.000
    N2240    N        0.36628    0.44726    0.63202    1.000
    N2241    N        0.36558    0.49107    0.73325    1.000
    N2242    N        0.37894    0.36037    0.79895    1.000
    Si2243   Si       0.36367    0.32775    0.82485    1.000
    N2244    N        0.38638    0.28891    0.82540    1.000
    Si2245   Si       0.38975    0.26291    0.79131    1.000
    N2246    N        0.37950    0.33594    0.86646    1.000
    Si2247   Si       0.39492    0.29113    0.86741    1.000
    Si2248   Si       0.35225    0.39221    0.78102    1.000
    N2249    N        0.38011    0.42387    0.76453    1.000
    Si2250   Si       0.39402    0.27664    0.93803    1.000
    Si2251   Si       0.35676    0.32759    0.96830    1.000
    N2252    N        0.36947    0.28267    0.90313    1.000
    N2253    N        0.39836    0.31396    0.96083    1.000
    N2254    N        0.34501    0.41801    0.94711    1.000
    N2255    N        0.39372    0.49851    0.96779    1.000
    N2256    N        0.37234    0.40166    0.88172    1.000
    N2257    N        0.37559    0.47678    0.87285    1.000
    Si2258   Si       0.38138    0.41284    0.92180    1.000
    N2259    N        0.37376    0.58959    0.07001    1.000
    Si2260   Si       0.35698    0.56535    0.10184    1.000
    N2261    N        0.36115    0.52311    0.09284    1.000
    N2262    N        0.36833    0.54749    0.00505    1.000
    Si2263   Si       0.39230    0.56648    0.03548    1.000
    Si2264   Si       0.37796    0.63104    0.08411    1.000
    N2265    N        0.35524    0.72266    0.04319    1.000
    Si2266   Si       0.37208    0.73513    0.08245    1.000
    Si2267   Si       0.36717    0.75272    0.01472    1.000
    N2268    N        0.37895    0.57165    0.13782    1.000
    Si2269   Si       0.35537    0.61395    0.20817    1.000
    N2270    N        0.39443    0.61443    0.19237    1.000
    N2271    N        0.39333    0.51317    0.24214    1.000
    Si2272   Si       0.40080    0.53769    0.15659    1.000
    N2273    N        0.34189    0.57755    0.22617    1.000
    N2274    N        0.36796    0.67795    0.15831    1.000
    N2275    N        0.37420    0.70885    0.22291    1.000
    Si2276   Si       0.35643    0.71240    0.18211    1.000
    N2277    N        0.37506    0.74955    0.16282    1.000
    N2278    N        0.36563    0.61430    0.30376    1.000
    Si2279   Si       0.39398    0.54119    0.27481    1.000
    N2280    N        0.34947    0.54671    0.28792    1.000
    N2281    N        0.36853    0.68169    0.28830    1.000
    Si2282   Si       0.35749    0.71599    0.26463    1.000
    N2283    N        0.35756    0.74109    0.33980    1.000
    N2284    N        0.37503    0.75458    0.27697    1.000
    Si2285   Si       0.34246    0.64609    0.28240    1.000
    Si2286   Si       0.39779    0.73799    0.35587    1.000
    N2287    N        0.35634    0.61423    0.45796    1.000
    Si2288   Si       0.36626    0.56962    0.46110    1.000
    N2289    N        0.38861    0.60804    0.39286    1.000
    Si2290   Si       0.35260    0.58643    0.38616    1.000
    Si2291   Si       0.38174    0.63143    0.42777    1.000
    N2292    N        0.36226    0.51503    0.46877    1.000
    N2293    N        0.34919    0.55969    0.42102    1.000
    N2294    N        0.36409    0.73619    0.45452    1.000
    Si2295   Si       0.35387    0.63778    0.49529    1.000
    N2296    N        0.36194    0.66990    0.42033    1.000
    Si2297   Si       0.38131    0.69613    0.45138    1.000
    N2298    N        0.39436    0.75005    0.39820    1.000
    N2299    N        0.37938    0.67186    0.48850    1.000
    N2300    N        0.37321    0.56397    0.57050    1.000
    Si2301   Si       0.37715    0.58736    0.60737    1.000
    N2302    N        0.36341    0.61631    0.53311    1.000
    N2303    N        0.39507    0.62661    0.59510    1.000
    Si2304   Si       0.34411    0.52829    0.57676    1.000
    Si2305   Si       0.40308    0.61794    0.55218    1.000
    Si2306   Si       0.34627    0.57572    0.53599    1.000
    N2307    N        0.36534    0.68794    0.57109    1.000
    Si2308   Si       0.37291    0.66203    0.60574    1.000
    Si2309   Si       0.38406    0.68983    0.52895    1.000
    Si2310   Si       0.36581    0.74501    0.49859    1.000
    N2311    N        0.40005    0.72869    0.52268    1.000
    N2312    N        0.35080    0.75805    0.57583    1.000
    Si2313   Si       0.37793    0.51474    0.69995    1.000
    N2314    N        0.34787    0.54320    0.68386    1.000
    N2315    N        0.34572    0.61610    0.71244    1.000
    Si2316   Si       0.38648    0.62957    0.71824    1.000
    N2317    N        0.36958    0.55425    0.74913    1.000
    Si2318   Si       0.39749    0.70347    0.71720    1.000
    N2319    N        0.40030    0.66402    0.69748    1.000
    N2320    N        0.37898    0.73181    0.69126    1.000
    N2321    N        0.34294    0.71855    0.63385    1.000
    Si2322   Si       0.35799    0.74995    0.65885    1.000
    Si2323   Si       0.35965    0.51739    0.76819    1.000
    N2324    N        0.38868    0.54280    0.86431    1.000
    N2325    N        0.34853    0.59919    0.81466    1.000
    Si2326   Si       0.36830    0.50963    0.84474    1.000
    Si2327   Si       0.37623    0.62817    0.80051    1.000
    N2328    N        0.38357    0.50600    0.80233    1.000
    N2329    N        0.39496    0.62565    0.76140    1.000
    N2330    N        0.36422    0.66793    0.81419    1.000
    Si2331   Si       0.38461    0.70119    0.79154    1.000
    N2332    N        0.37918    0.74331    0.79877    1.000
    N2333    N        0.34941    0.71290    0.86421    1.000
    N2334    N        0.36631    0.69443    0.75012    1.000
    Si2335   Si       0.37580    0.57271    0.89319    1.000
    N2336    N        0.38497    0.56199    0.93443    1.000
    Si2337   Si       0.35679    0.56819    0.96783    1.000
    N2338    N        0.39044    0.61319    0.88665    1.000
    N2339    N        0.38603    0.75191    0.90798    1.000
    Si2340   Si       0.39689    0.75257    0.94979    1.000
    N2341    N        0.39240    0.67750    0.91000    1.000
    Si2342   Si       0.36445    0.64570    0.89969    1.000
    N2343    N        0.39364    0.65217    0.97945    1.000
    N2344    N        0.36095    0.74255    0.97344    1.000
    Si2345   Si       0.38819    0.71311    0.88458    1.000
    Si2346   Si       0.34969    0.64713    0.97561    1.000
    N2347    N        0.38050    0.77384    0.09909    1.000
    Si2348   Si       0.36442    0.82842    0.01073    1.000
    N2349    N        0.39200    0.82496    0.04535    1.000
    N2350    N        0.34330    0.79059    0.01840    1.000
    N2351    N        0.37846    0.92094    0.00145    1.000
    N2352    N        0.37184    0.89186    0.06559    1.000
    Si2353   Si       0.37363    0.93028    0.04433    1.000
    Si2354   Si       0.36901    0.82921    0.20747    1.000
    N2355    N        0.38273    0.86740    0.18519    1.000
    Si2356   Si       0.39161    0.87673    0.14319    1.000
    Si2357   Si       0.34825    0.76727    0.13114    1.000
    N2358    N        0.40327    0.79937    0.20576    1.000
    N2359    N        0.34973    0.88022    0.13181    1.000
    N2360    N        0.36972    0.99785    0.24021    1.000
    N2361    N        0.38341    0.98197    0.13439    1.000
    N2362    N        0.37325    0.93733    0.19488    1.000
    Si2363   Si       0.34808    0.97136    0.21109    1.000
    Si2364   Si       0.37572    0.89900    0.21597    1.000
    Si2365   Si       0.34474    0.00010    0.13592    1.000
    Si2366   Si       0.39459    0.94839    0.16046    1.000
    N2367    N        0.38075    0.81395    0.31429    1.000
    Si2368   Si       0.37253    0.84868    0.28942    1.000
    Si2369   Si       0.35949    0.77510    0.31183    1.000
    N2370    N        0.37999    0.83542    0.24890    1.000
    N2371    N        0.39890    0.88296    0.29615    1.000
    Si2372   Si       0.38527    0.92125    0.31396    1.000
    N2373    N        0.39046    0.91491    0.35803    1.000
    Si2374   Si       0.34972    0.92729    0.36267    1.000
    N2375    N        0.34343    0.93258    0.32137    1.000
    Si2376   Si       0.40395    0.98510    0.26590    1.000
    N2377    N        0.35707    0.80222    0.43458    1.000
    N2378    N        0.36720    0.86117    0.47298    1.000
    N2379    N        0.37207    0.86297    0.40485    1.000
    Si2380   Si       0.39067    0.82511    0.41450    1.000
    Si2381   Si       0.35649    0.76091    0.41921    1.000
    N2382    N        0.35342    0.96001    0.39021    1.000
    Si2383   Si       0.35020    0.89756    0.48957    1.000
    N2384    N        0.38114    0.98480    0.45408    1.000
    Si2385   Si       0.38803    0.96300    0.41464    1.000
    Si2386   Si       0.35143    0.95809    0.47819    1.000
    Si2387   Si       0.38112    0.83910    0.60448    1.000
    N2388    N        0.36384    0.78493    0.51611    1.000
    Si2389   Si       0.38979    0.77030    0.59409    1.000
    N2390    N        0.39300    0.80930    0.57526    1.000
    N2391    N        0.38489    0.87789    0.58715    1.000
    Si2392   Si       0.39915    0.80640    0.53324    1.000
    N2393    N        0.39324    0.98053    0.55419    1.000
    Si2394   Si       0.37347    0.91740    0.60269    1.000
    Si2395   Si       0.35008    0.97321    0.55398    1.000
    N2396    N        0.34893    0.93301    0.57042    1.000
    N2397    N        0.37953    0.92967    0.49893    1.000
    Si2398   Si       0.38377    0.84948    0.71137    1.000
    N2399    N        0.38073    0.81522    0.68633    1.000
    N2400    N        0.38833    0.77115    0.63540    1.000
    N2401    N        0.39468    0.95815    0.68661    1.000
    Si2402   Si       0.34356    0.89510    0.67726    1.000
    N2403    N        0.36909    0.98640    0.62138    1.000
    N2404    N        0.38188    0.89126    0.69881    1.000
    Si2405   Si       0.36432    0.96023    0.65578    1.000
    N2406    N        0.35719    0.91831    0.64295    1.000
    Si2407   Si       0.38904    0.78438    0.80705    1.000
    N2408    N        0.39062    0.85708    0.84662    1.000
    N2409    N        0.36909    0.84985    0.75285    1.000
    N2410    N        0.35065    0.79929    0.79016    1.000
    Si2411   Si       0.37435    0.94396    0.77395    1.000
    N2412    N        0.37703    0.97715    0.80173    1.000
    N2413    N        0.36219    0.90967    0.80049    1.000
    Si2414   Si       0.38565    0.96181    0.84379    1.000
    Si2415   Si       0.39321    0.89455    0.82473    1.000
    N2416    N        0.35532    0.93990    0.86495    1.000
    Si2417   Si       0.37616    0.78576    0.88280    1.000
    N2418    N        0.38073    0.82101    0.90562    1.000
    Si2419   Si       0.36963    0.85686    0.88528    1.000
    N2420    N        0.38392    0.84826    0.97406    1.000
    Si2421   Si       0.34944    0.99190    0.94159    1.000
    N2422    N        0.38421    0.89414    0.90256    1.000
    Si2423   Si       0.35984    0.88636    0.98123    1.000
    N2424    N        0.35118    0.99324    0.98465    1.000
    Si2425   Si       0.35668    0.92669    0.90956    1.000
    N2426    N        0.38159    0.95855    0.93288    1.000
    Si2427   Si       0.40004    0.94168    0.97046    1.000
    N2428    N        0.42988    0.08853    0.06173    1.000
    Si2429   Si       0.44241    0.06914    0.10008    1.000
    N2430    N        0.40661    0.04698    0.11063    1.000
    Si2431   Si       0.45161    0.03768    0.01452    1.000
    N2432    N        0.40816    0.03877    0.01421    1.000
    N2433    N        0.45398    0.10788    0.11930    1.000
    Si2434   Si       0.41867    0.13562    0.11424    1.000
    Si2435   Si       0.46013    0.11223    0.03996    1.000
    N2436    N        0.44352    0.14350    0.01258    1.000
    N2437    N        0.44149    0.20709    0.04699    1.000
    Si2438   Si       0.45318    0.18540    0.01200    1.000
    N2439    N        0.41514    0.16475    0.08431    1.000
    N2440    N        0.46016    0.21041    0.11260    1.000
    Si2441   Si       0.46014    0.23269    0.07586    1.000
    Si2442   Si       0.40827    0.05814    0.20148    1.000
    N2443    N        0.42536    0.02883    0.17032    1.000
    N2444    N        0.41871    0.09772    0.18536    1.000
    N2445    N        0.44294    0.04732    0.22503    1.000
    Si2446   Si       0.45687    0.10416    0.16437    1.000
    Si2447   Si       0.43422    0.19812    0.14569    1.000
    N2448    N        0.42104    0.15882    0.22103    1.000
    N2449    N        0.42050    0.15529    0.15312    1.000
    Si2450   Si       0.46150    0.16624    0.20507    1.000
    N2451    N        0.42528    0.07936    0.29268    1.000
    Si2452   Si       0.44533    0.11302    0.31156    1.000
    Si2453   Si       0.44394    0.04556    0.26914    1.000
    N2454    N        0.41360    0.02133    0.28799    1.000
    N2455    N        0.43145    0.13570    0.34547    1.000
    Si2456   Si       0.42094    0.22055    0.31584    1.000
    Si2457   Si       0.42179    0.16451    0.26616    1.000
    N2458    N        0.45537    0.14025    0.28028    1.000
    N2459    N        0.40828    0.20915    0.27493    1.000
    N2460    N        0.42123    0.11396    0.46849    1.000
    Si2461   Si       0.42152    0.08029    0.44053    1.000
    N2462    N        0.40766    0.09917    0.40277    1.000
    Si2463   Si       0.45400    0.13180    0.49296    1.000
    Si2464   Si       0.43199    0.13427    0.38888    1.000
    Si2465   Si       0.41791    0.01067    0.44568    1.000
    Si2466   Si       0.43364    0.21241    0.41340    1.000
    N2467    N        0.40727    0.23987    0.39092    1.000
    N2468    N        0.41812    0.17342    0.40264    1.000
    N2469    N        0.43773    0.22641    0.45533    1.000
    Si2470   Si       0.43144    0.06759    0.53479    1.000
    N2471    N        0.44686    0.07244    0.57627    1.000
    N2472    N        0.44134    0.02778    0.52014    1.000
    N2473    N        0.41332    0.03069    0.61086    1.000
    Si2474   Si       0.42813    0.09139    0.61124    1.000
    Si2475   Si       0.45713    0.03541    0.60152    1.000
    N2476    N        0.45318    0.12883    0.62475    1.000
    Si2477   Si       0.44172    0.24942    0.53057    1.000
    Si2478   Si       0.42277    0.18102    0.53286    1.000
    N2479    N        0.43771    0.17834    0.57437    1.000
    Si2480   Si       0.42254    0.15631    0.60744    1.000
    N2481    N        0.40857    0.22095    0.52732    1.000
    N2482    N        0.45235    0.24894    0.57199    1.000
    N2483    N        0.45374    0.17406    0.50337    1.000
    N2484    N        0.42673    0.02436    0.67585    1.000
    N2485    N        0.40502    0.08548    0.64677    1.000
    Si2486   Si       0.39766    0.04332    0.65046    1.000
    N2487    N        0.41610    0.13813    0.70081    1.000
    Si2488   Si       0.42425    0.21126    0.64604    1.000
    Si2489   Si       0.44182    0.17265    0.70390    1.000
    N2490    N        0.43723    0.21356    0.68762    1.000
    N2491    N        0.43620    0.09613    0.83560    1.000
    N2492    N        0.43219    0.10907    0.76418    1.000
    Si2493   Si       0.43193    0.07864    0.79659    1.000
    Si2494   Si       0.40022    0.09927    0.86495    1.000
    N2495    N        0.41860    0.23307    0.79677    1.000
    Si2496   Si       0.44528    0.21500    0.76624    1.000
    N2497    N        0.44605    0.18079    0.82948    1.000
    Si2498   Si       0.43680    0.22328    0.83379    1.000
    N2499    N        0.40922    0.24211    0.86454    1.000
    Si2500   Si       0.43064    0.16313    0.87165    1.000
    N2501    N        0.43306    0.17903    0.74690    1.000
    Si2502   Si       0.41018    0.14096    0.74532    1.000
    N2503    N        0.42850    0.08515    0.94574    1.000
    Si2504   Si       0.42754    0.12804    0.93548    1.000
    N2505    N        0.41154    0.12969    0.89346    1.000
    Si2506   Si       0.41914    0.21042    0.93341    1.000
    N2507    N        0.42861    0.20675    0.97937    1.000
    N2508    N        0.44502    0.19096    0.90403    1.000
    N2509    N        0.43128    0.25363    0.92871    1.000
    Si2510   Si       0.44640    0.26165    0.88595    1.000
    Si2511   Si       0.41789    0.30441    0.06831    1.000
    N2512    N        0.42847    0.33718    0.09683    1.000
    N2513    N        0.44784    0.27411    0.06888    1.000
    N2514    N        0.41298    0.32161    0.02925    1.000
    Si2515   Si       0.44333    0.37475    0.08203    1.000
    N2516    N        0.42692    0.38187    0.04442    1.000
    N2517    N        0.41900    0.47366    0.09229    1.000
    N2518    N        0.43113    0.40284    0.11389    1.000
    Si2519   Si       0.44019    0.40199    0.00910    1.000
    Si2520   Si       0.45378    0.49489    0.10994    1.000
    N2521    N        0.43458    0.25586    0.20186    1.000
    N2522    N        0.41280    0.37040    0.17338    1.000
    Si2523   Si       0.42136    0.29728    0.19384    1.000
    N2524    N        0.43229    0.32637    0.22567    1.000
    Si2525   Si       0.41426    0.34229    0.13853    1.000
    N2526    N        0.43888    0.31239    0.15657    1.000
    Si2527   Si       0.40706    0.36135    0.21686    1.000
    Si2528   Si       0.42655    0.40768    0.15799    1.000
    N2529    N        0.43003    0.48139    0.19186    1.000
    Si2530   Si       0.41666    0.30585    0.32353    1.000
    N2531    N        0.44557    0.32692    0.29912    1.000
    N2532    N        0.42035    0.30549    0.36656    1.000
    N2533    N        0.40757    0.26131    0.31749    1.000
    Si2534   Si       0.46161    0.32970    0.25723    1.000
    N2535    N        0.43098    0.46184    0.34163    1.000
    Si2536   Si       0.44315    0.41881    0.34411    1.000
    Si2537   Si       0.44988    0.40201    0.26776    1.000
    N2538    N        0.45298    0.39749    0.30885    1.000
    N2539    N        0.41223    0.40504    0.37251    1.000
    Si2540   Si       0.45347    0.48175    0.37192    1.000
    N2541    N        0.41305    0.38914    0.24918    1.000
    N2542    N        0.43600    0.34682    0.47476    1.000
    N2543    N        0.41576    0.29427    0.43602    1.000
    Si2544   Si       0.41771    0.26459    0.46629    1.000
    Si2545   Si       0.45665    0.38369    0.46502    1.000
    Si2546   Si       0.40252    0.33215    0.45389    1.000
    N2547    N        0.43986    0.46012    0.40670    1.000
    N2548    N        0.45451    0.39026    0.42294    1.000
    N2549    N        0.41626    0.48281    0.46552    1.000
    Si2550   Si       0.42408    0.41898    0.41293    1.000
    N2551    N        0.45092    0.42128    0.48781    1.000
    Si2552   Si       0.45227    0.48475    0.44237    1.000
    Si2553   Si       0.43799    0.36964    0.56414    1.000
    Si2554   Si       0.41060    0.31603    0.60950    1.000
    N2555    N        0.42731    0.28118    0.50657    1.000
    N2556    N        0.45423    0.31065    0.60958    1.000
    Si2557   Si       0.45130    0.31873    0.50443    1.000
    N2558    N        0.40532    0.35475    0.58825    1.000
    N2559    N        0.46047    0.33916    0.54101    1.000
    N2560    N        0.41996    0.40078    0.54333    1.000
    Si2561   Si       0.43345    0.43753    0.52459    1.000
    N2562    N        0.43696    0.35541    0.68882    1.000
    N2563    N        0.44477    0.28340    0.68500    1.000
    Si2564   Si       0.40518    0.27693    0.66853    1.000
    Si2565   Si       0.45840    0.39263    0.67487    1.000
    Si2566   Si       0.45382    0.50091    0.73328    1.000
    N2567    N        0.42447    0.42259    0.67369    1.000
    N2568    N        0.43937    0.45860    0.74058    1.000
    Si2569   Si       0.44871    0.44569    0.70147    1.000
    N2570    N        0.46118    0.48453    0.68600    1.000
    Si2571   Si       0.42352    0.36482    0.80163    1.000
    N2572    N        0.44348    0.32814    0.79463    1.000
    Si2573   Si       0.44979    0.29631    0.76342    1.000
    N2574    N        0.40513    0.28559    0.75658    1.000
    N2575    N        0.42718    0.38349    0.84133    1.000
    Si2576   Si       0.44730    0.42170    0.83535    1.000
    N2577    N        0.44588    0.39795    0.77997    1.000
    Si2578   Si       0.42202    0.43405    0.77217    1.000
    N2579    N        0.42691    0.45293    0.81045    1.000
    Si2580   Si       0.42638    0.49555    0.80618    1.000
    Si2581   Si       0.40243    0.37102    0.87703    1.000
    N2582    N        0.43488    0.30298    0.88007    1.000
    N2583    N        0.44263    0.36595    0.98002    1.000
    Si2584   Si       0.42971    0.32627    0.98729    1.000
    Si2585   Si       0.45360    0.37741    0.94036    1.000
    N2586    N        0.41543    0.38087    0.91837    1.000
    N2587    N        0.46108    0.47366    0.98193    1.000
    N2588    N        0.44610    0.44272    0.87330    1.000
    Si2589   Si       0.42090    0.46164    0.96913    1.000
    N2590    N        0.40696    0.44685    0.93015    1.000
    Si2591   Si       0.41379    0.46933    0.89195    1.000
    N2592    N        0.41007    0.43118    0.00012    1.000
    N2593    N        0.41892    0.53872    0.05661    1.000
    N2594    N        0.41990    0.58881    0.00838    1.000
    Si2595   Si       0.41794    0.63253    0.01005    1.000
    N2596    N        0.44355    0.70296    0.03438    1.000
    Si2597   Si       0.42539    0.67948    0.06609    1.000
    Si2598   Si       0.43437    0.73247    0.00378    1.000
    N2599    N        0.46094    0.64400    0.00629    1.000
    N2600    N        0.40588    0.63680    0.11802    1.000
    N2601    N        0.40211    0.64606    0.04894    1.000
    N2602    N        0.39858    0.70108    0.09376    1.000
    Si2603   Si       0.41775    0.58743    0.22081    1.000
    Si2604   Si       0.42791    0.51655    0.21740    1.000
    N2605    N        0.43368    0.52720    0.13213    1.000
    N2606    N        0.44668    0.60276    0.14941    1.000
    N2607    N        0.41510    0.55369    0.19518    1.000
    Si2608   Si       0.40431    0.60565    0.14856    1.000
    N2609    N        0.44385    0.67979    0.14909    1.000
    N2610    N        0.44541    0.67283    0.21814    1.000
    Si2611   Si       0.41585    0.70335    0.23005    1.000
    N2612    N        0.43474    0.73549    0.20150    1.000
    Si2613   Si       0.40237    0.67998    0.13162    1.000
    Si2614   Si       0.45196    0.64278    0.12671    1.000
    N2615    N        0.42403    0.58558    0.33336    1.000
    Si2616   Si       0.43648    0.54402    0.33262    1.000
    N2617    N        0.41197    0.57882    0.26463    1.000
    Si2618   Si       0.40874    0.60738    0.29850    1.000
    N2619    N        0.44384    0.52460    0.37079    1.000
    N2620    N        0.40913    0.51958    0.30951    1.000
    N2621    N        0.43018    0.64383    0.29703    1.000
    N2622    N        0.42493    0.71174    0.27108    1.000
    N2623    N        0.41354    0.70007    0.33943    1.000
    Si2624   Si       0.45010    0.68796    0.35932    1.000
    Si2625   Si       0.41265    0.68212    0.29955    1.000
    Si2626   Si       0.41915    0.75362    0.28499    1.000
    Si2627   Si       0.42577    0.60910    0.37476    1.000
    Si2628   Si       0.44098    0.58984    0.44763    1.000
    N2629    N        0.45069    0.58473    0.40322    1.000
    N2630    N        0.42114    0.62844    0.44403    1.000
    N2631    N        0.40852    0.56418    0.46481    1.000
    Si2632   Si       0.40635    0.52272    0.47734    1.000
    N2633    N        0.42236    0.69795    0.43567    1.000
    Si2634   Si       0.44556    0.66040    0.42620    1.000
    Si2635   Si       0.43169    0.73668    0.41924    1.000
    N2636    N        0.44085    0.65207    0.38214    1.000
    N2637    N        0.45706    0.72399    0.38446    1.000
    Si2638   Si       0.43790    0.54964    0.53538    1.000
    N2639    N        0.44471    0.54569    0.57792    1.000
    N2640    N        0.43204    0.59312    0.52776    1.000
    N2641    N        0.40887    0.52253    0.52019    1.000
    Si2642   Si       0.42007    0.53128    0.61064    1.000
    Si2643   Si       0.45741    0.62946    0.53250    1.000
    Si2644   Si       0.43490    0.64638    0.60627    1.000
    N2645    N        0.42543    0.74223    0.58596    1.000
    Si2646   Si       0.43235    0.74459    0.54334    1.000
    N2647    N        0.41634    0.65786    0.54012    1.000
    Si2648   Si       0.44011    0.71355    0.61444    1.000
    N2649    N        0.40730    0.68117    0.62324    1.000
    N2650    N        0.40860    0.59440    0.70450    1.000
    Si2651   Si       0.42966    0.59355    0.66494    1.000
    N2652    N        0.42023    0.52648    0.71556    1.000
    Si2653   Si       0.41272    0.56390    0.73696    1.000
    Si2654   Si       0.44027    0.52334    0.67373    1.000
    N2655    N        0.40764    0.56787    0.63271    1.000
    N2656    N        0.45802    0.51470    0.62967    1.000
    N2657    N        0.43647    0.63168    0.64752    1.000
    Si2658   Si       0.42507    0.67135    0.66382    1.000
    N2659    N        0.43517    0.70817    0.73528    1.000
    N2660    N        0.44427    0.71105    0.65957    1.000
    Si2661   Si       0.42436    0.61621    0.86082    1.000
    N2662    N        0.44436    0.57707    0.76325    1.000
    Si2663   Si       0.43450    0.61621    0.77871    1.000
    N2664    N        0.41535    0.61743    0.81844    1.000
    N2665    N        0.44693    0.51695    0.83819    1.000
    N2666    N        0.44681    0.58007    0.87136    1.000
    Si2667   Si       0.43099    0.53882    0.86909    1.000
    N2668    N        0.45751    0.51037    0.77704    1.000
    N2669    N        0.42801    0.69051    0.80144    1.000
    Si2670   Si       0.44800    0.68977    0.84374    1.000
    N2671    N        0.42301    0.71979    0.86090    1.000
    N2672    N        0.44987    0.65277    0.86432    1.000
    Si2673   Si       0.45425    0.68485    0.76844    1.000
    N2674    N        0.44833    0.53619    0.95858    1.000
    Si2675   Si       0.40926    0.52685    0.93995    1.000
    Si2676   Si       0.45217    0.56617    0.98811    1.000
    N2677    N        0.42678    0.50977    0.90386    1.000
    Si2678   Si       0.41461    0.67488    0.94812    1.000
    N2679    N        0.41992    0.71601    0.96520    1.000
    N2680    N        0.45071    0.65018    0.93883    1.000
    N2681    N        0.44391    0.79244    0.07970    1.000
    Si2682   Si       0.42469    0.79615    0.03934    1.000
    N2683    N        0.44154    0.86996    0.05850    1.000
    Si2684   Si       0.41127    0.80228    0.10910    1.000
    N2685    N        0.45469    0.81809    0.01438    1.000
    N2686    N        0.40863    0.76106    0.02302    1.000
    Si2687   Si       0.40079    0.85977    0.07120    1.000
    N2688    N        0.40401    0.84604    0.11431    1.000
    Si2689   Si       0.43642    0.96786    0.02936    1.000
    Si2690   Si       0.42891    0.94502    0.10064    1.000
    N2691    N        0.40997    0.95121    0.06042    1.000
    N2692    N        0.44487    0.98547    0.11109    1.000
    N2693    N        0.42832    0.78887    0.14663    1.000
    Si2694   Si       0.41296    0.76617    0.17995    1.000
    Si2695   Si       0.41944    0.81735    0.24271    1.000
    N2696    N        0.45450    0.85634    0.17395    1.000
    Si2697   Si       0.43726    0.93673    0.21665    1.000
    N2698    N        0.41548    0.90355    0.23248    1.000
    N2699    N        0.41088    0.91647    0.13221    1.000
    N2700    N        0.43242    0.95773    0.17953    1.000
    Si2701   Si       0.41701    0.01157    0.13221    1.000
    Si2702   Si       0.41546    0.80695    0.33751    1.000
    N2703    N        0.43953    0.78180    0.25708    1.000
    N2704    N        0.45249    0.83039    0.33084    1.000
    N2705    N        0.41781    0.76550    0.32804    1.000
    N2706    N        0.45006    0.84761    0.24952    1.000
    Si2707   Si       0.43102    0.88277    0.26677    1.000
    Si2708   Si       0.44933    0.95216    0.28727    1.000
    N2709    N        0.40841    0.95562    0.30127    1.000
    N2710    N        0.43880    0.96726    0.24663    1.000
    Si2711   Si       0.45081    0.83821    0.37487    1.000
    N2712    N        0.41267    0.81558    0.37986    1.000
    Si2713   Si       0.41029    0.85538    0.47855    1.000
    N2714    N        0.42208    0.82842    0.44715    1.000
    N2715    N        0.45409    0.76555    0.44284    1.000
    N2716    N        0.44378    0.88033    0.38863    1.000
    N2717    N        0.43645    0.95590    0.49854    1.000
    Si2718   Si       0.43269    0.92726    0.46291    1.000
    N2719    N        0.45790    0.00222    0.45996    1.000
    N2720    N        0.42409    0.98933    0.40809    1.000
    N2721    N        0.44020    0.88555    0.47476    1.000
    N2722    N        0.39991    0.92247    0.42991    1.000
    Si2723   Si       0.40208    0.89505    0.39476    1.000
    N2724    N        0.43681    0.78512    0.52862    1.000
    Si2725   Si       0.41539    0.87142    0.55484    1.000
    N2726    N        0.44992    0.85614    0.57708    1.000
    N2727    N        0.40707    0.84603    0.52114    1.000
    Si2728   Si       0.45086    0.85597    0.62062    1.000
    N2729    N        0.42738    0.91385    0.55347    1.000
    Si2730   Si       0.44734    0.92440    0.59161    1.000
    N2731    N        0.40983    0.94138    0.60749    1.000
    N2732    N        0.45235    0.99002    0.59152    1.000
    Si2733   Si       0.40672    0.94430    0.53048    1.000
    Si2734   Si       0.40866    0.98514    0.59823    1.000
    Si2735   Si       0.46051    0.99230    0.50267    1.000
    Si2736   Si       0.45148    0.80761    0.71557    1.000
    N2737    N        0.41515    0.83698    0.63468    1.000
    N2738    N        0.42516    0.84265    0.72812    1.000
    N2739    N        0.44381    0.78330    0.67983    1.000
    Si2740   Si       0.41036    0.79933    0.65977    1.000
    N2741    N        0.46055    0.89708    0.62516    1.000
    Si2742   Si       0.40955    0.92392    0.70734    1.000
    N2743    N        0.45075    0.90526    0.69572    1.000
    Si2744   Si       0.41863    0.99153    0.70336    1.000
    N2745    N        0.45661    0.97528    0.71786    1.000
    Si2746   Si       0.42028    0.82698    0.83577    1.000
    N2747    N        0.42158    0.81078    0.79174    1.000
    Si2748   Si       0.40906    0.84548    0.76971    1.000
    N2749    N        0.45953    0.83754    0.84954    1.000
    Si2750   Si       0.44004    0.75901    0.85307    1.000
    N2751    N        0.42321    0.87722    0.79571    1.000
    N2752    N        0.40514    0.78683    0.84743    1.000
    N2753    N        0.45761    0.77608    0.74540    1.000
    Si2754   Si       0.45419    0.93076    0.85201    1.000
    N2755    N        0.41566    0.93061    0.83641    1.000
    Si2756   Si       0.44363    0.96379    0.75886    1.000
    N2757    N        0.43875    0.99882    0.78102    1.000
    N2758    N        0.40678    0.99081    0.86955    1.000
    N2759    N        0.40919    0.93806    0.74984    1.000
    Si2760   Si       0.45028    0.00372    0.87293    1.000
    N2761    N        0.41964    0.79054    0.95867    1.000
    N2762    N        0.43679    0.85399    0.92882    1.000
    Si2763   Si       0.40348    0.82814    0.94189    1.000
    Si2764   Si       0.45803    0.79570    0.97729    1.000
    N2765    N        0.46109    0.77801    0.88607    1.000
    Si2766   Si       0.45438    0.98660    0.95995    1.000
    Si2767   Si       0.42617    0.89424    0.91728    1.000
    N2768    N        0.45908    0.90808    0.89184    1.000
    N2769    N        0.44552    0.98243    0.91850    1.000
    N2770    N        0.43123    0.91598    0.95494    1.000
    Si2771   Si       0.40224    0.99201    0.91207    1.000
    N2772    N        0.41939    0.97704    0.98949    1.000
    N2773    N        0.47665    0.04140    0.10355    1.000
    Si2774   Si       0.49246    0.12228    0.10431    1.000
    N2775    N        0.47369    0.07579    0.01836    1.000
    N2776    N        0.49157    0.13236    0.06259    1.000
    N2777    N        0.49711    0.18814    0.01320    1.000
    N2778    N        0.50500    0.24723    0.07822    1.000
    Si2779   Si       0.50020    0.19314    0.11562    1.000
    Si2780   Si       0.51501    0.16158    0.04587    1.000
    Si2781   Si       0.50819    0.09058    0.20050    1.000
    Si2782   Si       0.50685    0.05477    0.13118    1.000
    N2783    N        0.48288    0.06901    0.16903    1.000
    Si2784   Si       0.46411    0.03558    0.18989    1.000
    N2785    N        0.48187    0.13056    0.18789    1.000
    N2786    N        0.49973    0.10084    0.24439    1.000
    Si2787   Si       0.47163    0.24278    0.18432    1.000
    N2788    N        0.49004    0.17446    0.23665    1.000
    Si2789   Si       0.51745    0.20656    0.22781    1.000
    N2790    N        0.50558    0.24359    0.21216    1.000
    N2791    N        0.50550    0.15427    0.13293    1.000
    N2792    N        0.46158    0.20071    0.18022    1.000
    N2793    N        0.48173    0.09679    0.32902    1.000
    N2794    N        0.48494    0.03784    0.27889    1.000
    Si2795   Si       0.50115    0.12228    0.36138    1.000
    N2796    N        0.51290    0.03149    0.34014    1.000
    Si2797   Si       0.51614    0.05914    0.25759    1.000
    Si2798   Si       0.51848    0.07353    0.32789    1.000
    Si2799   Si       0.50322    0.00890    0.30415    1.000
    Si2800   Si       0.49577    0.13993    0.26286    1.000
    Si2801   Si       0.48355    0.24098    0.35982    1.000
    N2802    N        0.51057    0.16453    0.35385    1.000
    N2803    N        0.46070    0.22430    0.32763    1.000
    N2804    N        0.49718    0.00552    0.40739    1.000
    Si2805   Si       0.48840    0.10339    0.43491    1.000
    N2806    N        0.47589    0.12164    0.39677    1.000
    Si2807   Si       0.48787    0.03106    0.44455    1.000
    N2808    N        0.49033    0.13094    0.46689    1.000
    N2809    N        0.46363    0.06692    0.43836    1.000
    N2810    N        0.51495    0.03079    0.47701    1.000
    Si2811   Si       0.47054    0.20988    0.47961    1.000
    N2812    N        0.47444    0.22109    0.39962    1.000
    N2813    N        0.50474    0.19775    0.45710    1.000
    Si2814   Si       0.51550    0.21704    0.41950    1.000
    Si2815   Si       0.48940    0.08019    0.56386    1.000
    N2816    N        0.49749    0.03423    0.58090    1.000
    N2817    N        0.51128    0.10257    0.59644    1.000
    N2818    N        0.45624    0.10080    0.52146    1.000
    N2819    N        0.48068    0.23854    0.50970    1.000
    N2820    N        0.50873    0.20114    0.57767    1.000
    Si2821   Si       0.46697    0.20850    0.58846    1.000
    Si2822   Si       0.48819    0.10635    0.63434    1.000
    N2823    N        0.50160    0.11819    0.73779    1.000
    N2824    N        0.46876    0.06404    0.63658    1.000
    Si2825   Si       0.46721    0.04301    0.67538    1.000
    N2826    N        0.51451    0.11068    0.66826    1.000
    N2827    N        0.50020    0.01394    0.68454    1.000
    N2828    N        0.46631    0.06733    0.70808    1.000
    Si2829   Si       0.46741    0.09072    0.74434    1.000
    Si2830   Si       0.49524    0.20086    0.66416    1.000
    Si2831   Si       0.51515    0.13874    0.70069    1.000
    N2832    N        0.46540    0.20714    0.63154    1.000
    N2833    N        0.50045    0.23676    0.69075    1.000
    N2834    N        0.48306    0.16687    0.68916    1.000
    Si2835   Si       0.46113    0.24706    0.70295    1.000
    N2836    N        0.46124    0.25270    0.74577    1.000
    Si2837   Si       0.47429    0.11233    0.84243    1.000
    N2838    N        0.50537    0.08467    0.85467    1.000
    Si2839   Si       0.47383    0.02290    0.79708    1.000
    N2840    N        0.47064    0.02680    0.83916    1.000
    N2841    N        0.46987    0.06291    0.77883    1.000
    Si2842   Si       0.49368    0.04748    0.87066    1.000
    N2843    N        0.49060    0.13159    0.80631    1.000
    N2844    N        0.47006    0.24184    0.85551    1.000
    N2845    N        0.48575    0.20817    0.78209    1.000
    Si2846   Si       0.48452    0.17563    0.81314    1.000
    Si2847   Si       0.49864    0.24965    0.77094    1.000
    Si2848   Si       0.50667    0.22129    0.86409    1.000
    N2849    N        0.47291    0.14232    0.87223    1.000
    N2850    N        0.51713    0.12272    0.98311    1.000
    Si2851   Si       0.46174    0.05763    0.94145    1.000
    N2852    N        0.50198    0.07232    0.94981    1.000
    Si2853   Si       0.50488    0.11559    0.94331    1.000
    Si2854   Si       0.50922    0.08246    0.99440    1.000
    N2855    N        0.45908    0.02613    0.97185    1.000
    N2856    N        0.46026    0.04616    0.89866    1.000
    N2857    N        0.49801    0.25020    0.97790    1.000
    Si2858   Si       0.48276    0.16850    0.90710    1.000
    N2859    N        0.46955    0.14012    0.93964    1.000
    N2860    N        0.51018    0.20215    0.90453    1.000
    N2861    N        0.49777    0.30720    0.10124    1.000
    Si2862   Si       0.48973    0.28754    0.06485    1.000
    Si2863   Si       0.51088    0.35023    0.10003    1.000
    N2864    N        0.51130    0.30536    0.03278    1.000
    N2865    N        0.48599    0.37736    0.07804    1.000
    Si2866   Si       0.50512    0.41044    0.05419    1.000
    N2867    N        0.47961    0.41487    0.01736    1.000
    N2868    N        0.50827    0.44447    0.08180    1.000
    Si2869   Si       0.50971    0.48290    0.06313    1.000
    N2870    N        0.51728    0.48484    0.02183    1.000
    Si2871   Si       0.51693    0.26082    0.12025    1.000
    Si2872   Si       0.48021    0.31009    0.14117    1.000
    N2873    N        0.49983    0.35125    0.14536    1.000
    N2874    N        0.48586    0.26819    0.15035    1.000
    Si2875   Si       0.51715    0.38490    0.24221    1.000
    N2876    N        0.51777    0.37892    0.20047    1.000
    N2877    N        0.50315    0.47433    0.19988    1.000
    Si2878   Si       0.46758    0.46309    0.17819    1.000
    Si2879   Si       0.49999    0.45728    0.23952    1.000
    N2880    N        0.46245    0.42030    0.17415    1.000
    Si2881   Si       0.51527    0.45233    0.12502    1.000
    N2882    N        0.47830    0.47161    0.13531    1.000
    Si2883   Si       0.49351    0.39316    0.16557    1.000
    N2884    N        0.48210    0.28330    0.35878    1.000
    N2885    N        0.50871    0.33816    0.31208    1.000
    Si2886   Si       0.46969    0.35748    0.31795    1.000
    N2887    N        0.46759    0.35442    0.36080    1.000
    N2888    N        0.47931    0.36923    0.25828    1.000
    Si2889   Si       0.51462    0.30340    0.33784    1.000
    N2890    N        0.49676    0.30569    0.24768    1.000
    N2891    N        0.48221    0.42215    0.36467    1.000
    N2892    N        0.50973    0.48938    0.26813    1.000
    Si2893   Si       0.51354    0.45209    0.36782    1.000
    N2894    N        0.46283    0.43823    0.24952    1.000
    N2895    N        0.49889    0.37075    0.47565    1.000
    N2896    N        0.49083    0.30375    0.49055    1.000
    Si2897   Si       0.50162    0.32995    0.45894    1.000
    N2898    N        0.48725    0.32573    0.41746    1.000
    Si2899   Si       0.46029    0.31818    0.38199    1.000
    Si2900   Si       0.51635    0.47825    0.42398    1.000
    N2901    N        0.48960    0.46960    0.45683    1.000
    Si2902   Si       0.48511    0.44815    0.49359    1.000
    Si2903   Si       0.48139    0.38329    0.38979    1.000
    N2904    N        0.49448    0.48650    0.38476    1.000
    N2905    N        0.50815    0.28035    0.55767    1.000
    Si2906   Si       0.47677    0.27896    0.58923    1.000
    Si2907   Si       0.50970    0.27135    0.51425    1.000
    Si2908   Si       0.49802    0.35560    0.55658    1.000
    N2909    N        0.50773    0.27019    0.61955    1.000
    N2910    N        0.51339    0.34302    0.59549    1.000
    N2911    N        0.47502    0.38914    0.57395    1.000
    Si2912   Si       0.48918    0.41175    0.60719    1.000
    Si2913   Si       0.49255    0.50140    0.53297    1.000
    N2914    N        0.46518    0.46782    0.52804    1.000
    N2915    N        0.52091    0.42833    0.50444    1.000
    Si2916   Si       0.48083    0.34173    0.62724    1.000
    N2917    N        0.47898    0.31830    0.73352    1.000
    N2918    N        0.49527    0.32424    0.66331    1.000
    Si2919   Si       0.46510    0.32207    0.69402    1.000
    N2920    N        0.47489    0.38304    0.63649    1.000
    Si2921   Si       0.48049    0.48101    0.64536    1.000
    N2922    N        0.48180    0.41615    0.70226    1.000
    N2923    N        0.47057    0.44806    0.62016    1.000
    Si2924   Si       0.51791    0.41040    0.72584    1.000
    N2925    N        0.49441    0.32992    0.85547    1.000
    N2926    N        0.50254    0.35505    0.79067    1.000
    Si2927   Si       0.48081    0.32123    0.81552    1.000
    N2928    N        0.48848    0.28379    0.79389    1.000
    Si2929   Si       0.51276    0.33851    0.75150    1.000
    Si2930   Si       0.48957    0.39552    0.79177    1.000
    N2931    N        0.48898    0.41234    0.82880    1.000
    N2932    N        0.50766    0.49179    0.83850    1.000
    N2933    N        0.51924    0.41906    0.76881    1.000
    N2934    N        0.48103    0.34886    0.92184    1.000
    N2935    N        0.48855    0.27878    0.91074    1.000
    Si2936   Si       0.47466    0.31788    0.89135    1.000
    Si2937   Si       0.46801    0.26677    0.94914    1.000
    Si2938   Si       0.50372    0.29362    0.99096    1.000
    N2939    N        0.46255    0.30032    0.97821    1.000
    Si2940   Si       0.47501    0.43863    0.90568    1.000
    Si2941   Si       0.48728    0.50468    0.99642    1.000
    N2942    N        0.49030    0.47873    0.91450    1.000
    N2943    N        0.51187    0.41973    0.89368    1.000
    Si2944   Si       0.48845    0.43940    0.97895    1.000
    Si2945   Si       0.51022    0.49914    0.88249    1.000
    N2946    N        0.46858    0.41852    0.94374    1.000
    N2947    N        0.47990    0.57907    0.08103    1.000
    N2948    N        0.47323    0.54262    0.01792    1.000
    Si2949   Si       0.50849    0.59924    0.10706    1.000
    Si2950   Si       0.46266    0.54650    0.05944    1.000
    N2951    N        0.47765    0.50898    0.07615    1.000
    Si2952   Si       0.47817    0.68040    0.01999    1.000
    Si2953   Si       0.50472    0.66285    0.08592    1.000
    N2954    N        0.50925    0.68271    0.04875    1.000
    N2955    N        0.50148    0.75112    0.09613    1.000
    N2956    N        0.51830    0.68682    0.11910    1.000
    N2957    N        0.45969    0.66120    0.08744    1.000
    N2958    N        0.50119    0.56887    0.18722    1.000
    Si2959   Si       0.48581    0.56789    0.22768    1.000
    Si2960   Si       0.48153    0.60511    0.17418    1.000
    N2961    N        0.46221    0.53349    0.23976    1.000
    N2962    N        0.49551    0.63160    0.13619    1.000
    N2963    N        0.45894    0.60222    0.22120    1.000
    N2964    N        0.50684    0.63559    0.19609    1.000
    Si2965   Si       0.47309    0.64336    0.22937    1.000
    N2966    N        0.50094    0.75033    0.23909    1.000
    Si2967   Si       0.51729    0.66686    0.15822    1.000
    N2968    N        0.50127    0.69961    0.18565    1.000
    Si2969   Si       0.45779    0.69955    0.18399    1.000
    N2970    N        0.48580    0.61703    0.33588    1.000
    Si2971   Si       0.49020    0.52714    0.27340    1.000
    N2972    N        0.47426    0.54084    0.31055    1.000
    N2973    N        0.51505    0.56231    0.25841    1.000
    Si2974   Si       0.47266    0.64470    0.30534    1.000
    N2975    N        0.49325    0.64721    0.26641    1.000
    N2976    N        0.47785    0.68355    0.32532    1.000
    Si2977   Si       0.51972    0.68967    0.33147    1.000
    N2978    N        0.51074    0.55621    0.38749    1.000
    N2979    N        0.47563    0.59488    0.47141    1.000
    Si2980   Si       0.46905    0.54637    0.39747    1.000
    N2981    N        0.45954    0.52689    0.43656    1.000
    Si2982   Si       0.49160    0.74982    0.46033    1.000
    Si2983   Si       0.49530    0.63406    0.47274    1.000
    N2984    N        0.50855    0.71420    0.48364    1.000
    Si2985   Si       0.49907    0.73412    0.38658    1.000
    N2986    N        0.51323    0.69310    0.37470    1.000
    N2987    N        0.48756    0.65616    0.43637    1.000
    N2988    N        0.51409    0.73804    0.42687    1.000
    Si2989   Si       0.48095    0.53556    0.59906    1.000
    Si2990   Si       0.49662    0.60652    0.57969    1.000
    N2991    N        0.50057    0.57446    0.60819    1.000
    N2992    N        0.49656    0.60050    0.53636    1.000
    N2993    N        0.47424    0.53644    0.51455    1.000
    Si2994   Si       0.49461    0.57293    0.50290    1.000
    N2995    N        0.50855    0.51216    0.57436    1.000
    N2996    N        0.45759    0.62314    0.57738    1.000
    Si2997   Si       0.49507    0.69526    0.51869    1.000
    N2998    N        0.46767    0.68248    0.60182    1.000
    N2999    N        0.47912    0.65514    0.50529    1.000
    Si3000   Si       0.50972    0.67705    0.59120    1.000
    N3001    N        0.46520    0.72058    0.53507    1.000
    N3002    N        0.50989    0.61166    0.67210    1.000
    N3003    N        0.50342    0.58932    0.73597    1.000
    N3004    N        0.48703    0.53055    0.72648    1.000
    Si3005   Si       0.49634    0.56770    0.69893    1.000
    N3006    N        0.45901    0.56449    0.67672    1.000
    Si3007   Si       0.46893    0.73653    0.73478    1.000
    N3008    N        0.49450    0.73657    0.69868    1.000
    Si3009   Si       0.46606    0.74755    0.66646    1.000
    Si3010   Si       0.48272    0.55721    0.75967    1.000
    N3011    N        0.50371    0.55220    0.79619    1.000
    Si3012   Si       0.50624    0.62840    0.75921    1.000
    Si3013   Si       0.48441    0.51664    0.81357    1.000
    N3014    N        0.48908    0.70595    0.83884    1.000
    N3015    N        0.48556    0.71791    0.76958    1.000
    Si3016   Si       0.49899    0.73535    0.80656    1.000
    N3017    N        0.46677    0.64303    0.76875    1.000
    Si3018   Si       0.51890    0.69726    0.87026    1.000
    Si3019   Si       0.49052    0.57808    0.87874    1.000
    N3020    N        0.50112    0.61813    0.89767    1.000
    N3021    N        0.49585    0.53875    0.89455    1.000
    N3022    N        0.51285    0.52094    0.96303    1.000
    N3023    N        0.47696    0.59148    0.96576    1.000
    Si3024   Si       0.47842    0.51854    0.93135    1.000
    Si3025   Si       0.47937    0.63348    0.96895    1.000
    N3026    N        0.49892    0.68689    0.90889    1.000
    Si3027   Si       0.47431    0.65145    0.90004    1.000
    Si3028   Si       0.50579    0.73734    0.98364    1.000
    Si3029   Si       0.51930    0.68150    0.94701    1.000
    N3030    N        0.49662    0.69546    0.98161    1.000
    Si3031   Si       0.47417    0.84342    0.04494    1.000
    N3032    N        0.50409    0.81918    0.06529    1.000
    Si3033   Si       0.48418    0.79009    0.09140    1.000
    N3034    N        0.49965    0.87844    0.03554    1.000
    Si3035   Si       0.50648    0.94500    0.10267    1.000
    N3036    N        0.47069    0.92627    0.08805    1.000
    Si3037   Si       0.46936    0.90432    0.05097    1.000
    Si3038   Si       0.47343    0.00093    0.08243    1.000
    N3039    N        0.51293    0.98272    0.08420    1.000
    N3040    N        0.45918    0.93213    0.01558    1.000
    N3041    N        0.45758    0.00408    0.04269    1.000
    N3042    N        0.48952    0.81328    0.12945    1.000
    N3043    N        0.47573    0.78939    0.19324    1.000
    N3044    N        0.51416    0.87248    0.21778    1.000
    Si3045   Si       0.46150    0.76201    0.22581    1.000
    Si3046   Si       0.51888    0.78684    0.19841    1.000
    Si3047   Si       0.46101    0.81531    0.16282    1.000
    Si3048   Si       0.48504    0.88391    0.18296    1.000
    N3049    N        0.50378    0.94556    0.14657    1.000
    N3050    N        0.48936    0.00056    0.18681    1.000
    Si3051   Si       0.47829    0.95969    0.17712    1.000
    N3052    N        0.47884    0.92241    0.20560    1.000
    Si3053   Si       0.49437    0.82714    0.31756    1.000
    N3054    N        0.50516    0.85631    0.28725    1.000
    N3055    N        0.51264    0.79226    0.30154    1.000
    Si3056   Si       0.49426    0.84362    0.24712    1.000
    N3057    N        0.51257    0.83870    0.35384    1.000
    N3058    N        0.51244    0.76935    0.36615    1.000
    N3059    N        0.48082    0.97061    0.30958    1.000
    Si3060   Si       0.50031    0.89898    0.29255    1.000
    Si3061   Si       0.49594    0.94896    0.34442    1.000
    N3062    N        0.50925    0.90821    0.33473    1.000
    N3063    N        0.45938    0.91026    0.28017    1.000
    N3064    N        0.47772    0.81471    0.40014    1.000
    N3065    N        0.49353    0.84144    0.45688    1.000
    Si3066   Si       0.47948    0.87056    0.48696    1.000
    N3067    N        0.49833    0.77912    0.49244    1.000
    Si3068   Si       0.46481    0.81109    0.44113    1.000
    N3069    N        0.47068    0.94669    0.37818    1.000
    Si3070   Si       0.46514    0.97534    0.41364    1.000
    Si3071   Si       0.47258    0.91204    0.40199    1.000
    N3072    N        0.51221    0.89526    0.40294    1.000
    N3073    N        0.46469    0.93822    0.43663    1.000
    N3074    N        0.49620    0.80428    0.56537    1.000
    Si3075   Si       0.48960    0.84795    0.56180    1.000
    Si3076   Si       0.49267    0.79723    0.60992    1.000
    N3077    N        0.48038    0.84335    0.52030    1.000
    Si3078   Si       0.47665    0.80055    0.52406    1.000
    Si3079   Si       0.49436    0.98423    0.57306    1.000
    N3080    N        0.48689    0.93874    0.57865    1.000
    N3081    N        0.49884    0.98149    0.52347    1.000
    N3082    N        0.50290    0.90503    0.49921    1.000
    Si3083   Si       0.52387    0.94061    0.50809    1.000
    N3084    N        0.48367    0.83480    0.70726    1.000
    Si3085   Si       0.50594    0.83849    0.67116    1.000
    N3086    N        0.48357    0.83103    0.63569    1.000
    N3087    N        0.48672    0.75810    0.62819    1.000
    N3088    N        0.51309    0.88185    0.66669    1.000
    Si3089   Si       0.45926    0.87205    0.72281    1.000
    Si3090   Si       0.47969    0.91071    0.66290    1.000
    Si3091   Si       0.49437    0.97458    0.69998    1.000
    N3092    N        0.49686    0.94949    0.66420    1.000
    N3093    N        0.50196    0.81232    0.78359    1.000
    N3094    N        0.47970    0.87722    0.75974    1.000
    Si3095   Si       0.51243    0.85115    0.77034    1.000
    Si3096   Si       0.47451    0.87432    0.86848    1.000
    N3097    N        0.46670    0.76429    0.81781    1.000
    Si3098   Si       0.46316    0.79386    0.78552    1.000
    N3099    N        0.52431    0.80360    0.86252    1.000
    N3100    N        0.48109    0.90237    0.83278    1.000
    N3101    N        0.47312    0.93980    0.77702    1.000
    Si3102   Si       0.50974    0.96084    0.77437    1.000
    N3103    N        0.47184    0.96470    0.86556    1.000
    N3104    N        0.50886    0.00078    0.78868    1.000
    Si3105   Si       0.46074    0.90113    0.79237    1.000
    Si3106   Si       0.48337    0.81148    0.87441    1.000
    N3107    N        0.48981    0.81443    0.95652    1.000
    Si3108   Si       0.48121    0.85268    0.93831    1.000
    N3109    N        0.49460    0.84873    0.89719    1.000
    N3110    N        0.46873    0.75768    0.99250    1.000
    N3111    N        0.48518    0.95692    0.95774    1.000
    Si3112   Si       0.47780    0.95156    0.90752    1.000
    Si3113   Si       0.46987    0.92072    0.97520    1.000
    N3114    N        0.49411    0.88741    0.96008    1.000
    N3115    N        0.54055    0.06050    0.01419    1.000
    Si3116   Si       0.56284    0.10130    0.09868    1.000
    N3117    N        0.52250    0.09001    0.11018    1.000
    N3118    N        0.57525    0.02839    0.06719    1.000
    Si3119   Si       0.55153    0.02111    0.99780    1.000
    Si3120   Si       0.57949    0.05939    0.03397    1.000
    N3121    N        0.57056    0.14404    0.09571    1.000
    Si3122   Si       0.53844    0.22412    0.06252    1.000
    N3123    N        0.54785    0.23406    0.02277    1.000
    N3124    N        0.55383    0.15376    0.02856    1.000
    Si3125   Si       0.56275    0.18646    0.10527    1.000
    N3126    N        0.52563    0.18728    0.07987    1.000
    N3127    N        0.54328    0.11099    0.18253    1.000
    N3128    N        0.53925    0.03125    0.14896    1.000
    Si3129   Si       0.53062    0.01839    0.19005    1.000
    N3130    N        0.52538    0.05203    0.21550    1.000
    N3131    N        0.52630    0.21976    0.13569    1.000
    N3132    N        0.53732    0.18410    0.19444    1.000
    Si3133   Si       0.55331    0.21246    0.16871    1.000
    N3134    N        0.57539    0.24758    0.18143    1.000
    Si3135   Si       0.52082    0.14833    0.17421    1.000
    N3136    N        0.54229    0.07722    0.29061    1.000
    Si3137   Si       0.56184    0.11307    0.27753    1.000
    N3138    N        0.53630    0.09396    0.36245    1.000
    N3139    N        0.53639    0.21604    0.26484    1.000
    Si3140   Si       0.55323    0.18306    0.28593    1.000
    Si3141   Si       0.53967    0.19461    0.35966    1.000
    N3142    N        0.53345    0.14548    0.28090    1.000
    N3143    N        0.52581    0.23600    0.36242    1.000
    N3144    N        0.56729    0.19169    0.32572    1.000
    Si3145   Si       0.55482    0.25366    0.28112    1.000
    N3146    N        0.56826    0.08784    0.48826    1.000
    N3147    N        0.52638    0.08338    0.42906    1.000
    N3148    N        0.56107    0.02828    0.39374    1.000
    Si3149   Si       0.55988    0.10278    0.44934    1.000
    Si3150   Si       0.55339    0.07221    0.39533    1.000
    N3151    N        0.54907    0.19219    0.40119    1.000
    N3152    N        0.55557    0.14412    0.44976    1.000
    Si3153   Si       0.52207    0.16008    0.47324    1.000
    N3154    N        0.53575    0.25406    0.42624    1.000
    Si3155   Si       0.55333    0.10029    0.58617    1.000
    N3156    N        0.56550    0.05637    0.58119    1.000
    Si3157   Si       0.53714    0.03105    0.60165    1.000
    N3158    N        0.56452    0.01974    0.51651    1.000
    N3159    N        0.57088    0.12366    0.55109    1.000
    Si3160   Si       0.54069    0.05814    0.50157    1.000
    N3161    N        0.51789    0.07497    0.53378    1.000
    Si3162   Si       0.55791    0.16480    0.54819    1.000
    Si3163   Si       0.54142    0.20378    0.60518    1.000
    N3164    N        0.56149    0.24032    0.58662    1.000
    N3165    N        0.56749    0.17260    0.59144    1.000
    N3166    N        0.52908    0.16258    0.51494    1.000
    N3167    N        0.57228    0.10686    0.62572    1.000
    N3168    N        0.54044    0.04628    0.64200    1.000
    Si3169   Si       0.54935    0.08623    0.65690    1.000
    N3170    N        0.56535    0.01909    0.71001    1.000
    N3171    N        0.56931    0.08488    0.69551    1.000
    Si3172   Si       0.54241    0.01513    0.67245    1.000
    N3173    N        0.53622    0.25158    0.75032    1.000
    N3174    N        0.53466    0.19748    0.64822    1.000
    Si3175   Si       0.56922    0.18610    0.67423    1.000
    Si3176   Si       0.54054    0.24746    0.70879    1.000
    N3177    N        0.55375    0.16196    0.70668    1.000
    N3178    N        0.54829    0.09719    0.79337    1.000
    Si3179   Si       0.54454    0.09782    0.83693    1.000
    N3180    N        0.56868    0.06328    0.85157    1.000
    Si3181   Si       0.55837    0.02392    0.86682    1.000
    Si3182   Si       0.52107    0.12572    0.77684    1.000
    N3183    N        0.55898    0.13849    0.84854    1.000
    Si3184   Si       0.55432    0.17302    0.82121    1.000
    N3185    N        0.54865    0.16186    0.77817    1.000
    Si3186   Si       0.56883    0.24713    0.83611    1.000
    N3187    N        0.53703    0.25094    0.86434    1.000
    N3188    N        0.51701    0.18889    0.83732    1.000
    N3189    N        0.53869    0.00923    0.95779    1.000
    N3190    N        0.52561    0.03078    0.89340    1.000
    Si3191   Si       0.53526    0.04564    0.93351    1.000
    N3192    N        0.57403    0.06455    0.93890    1.000
    Si3193   Si       0.55192    0.14989    0.98508    1.000
    N3194    N        0.53133    0.13028    0.91203    1.000
    Si3195   Si       0.54614    0.20675    0.92717    1.000
    Si3196   Si       0.56666    0.14357    0.89105    1.000
    N3197    N        0.54570    0.18970    0.96651    1.000
    N3198    N        0.55659    0.25120    0.92869    1.000
    Si3199   Si       0.52156    0.21624    0.99326    1.000
    N3200    N        0.54659    0.35077    0.07774    1.000
    Si3201   Si       0.55052    0.32175    0.04597    1.000
    N3202    N        0.57451    0.28651    0.05636    1.000
    N3203    N        0.57601    0.34136    0.01561    1.000
    Si3204   Si       0.57101    0.38570    0.06643    1.000
    N3205    N        0.55114    0.49506    0.07321    1.000
    N3206    N        0.54658    0.40621    0.03675    1.000
    Si3207   Si       0.56026    0.49532    0.02967    1.000
    Si3208   Si       0.57366    0.49442    0.11133    1.000
    Si3209   Si       0.56040    0.42661    0.00052    1.000
    N3210    N        0.57576    0.41154    0.10046    1.000
    N3211    N        0.55608    0.27888    0.12307    1.000
    Si3212   Si       0.52355    0.28322    0.22235    1.000
    Si3213   Si       0.56946    0.28664    0.16393    1.000
    N3214    N        0.56693    0.36585    0.15932    1.000
    Si3215   Si       0.53409    0.34681    0.17813    1.000
    N3216    N        0.53978    0.30528    0.18840    1.000
    N3217    N        0.57049    0.47144    0.21380    1.000
    N3218    N        0.54712    0.47818    0.14092    1.000
    Si3219   Si       0.54112    0.48634    0.18503    1.000
    N3220    N        0.52223    0.41502    0.14156    1.000
    Si3221   Si       0.56381    0.40434    0.14150    1.000
    N3222    N        0.52878    0.42614    0.24573    1.000
    Si3223   Si       0.56936    0.44298    0.24667    1.000
    N3224    N        0.53285    0.28132    0.30494    1.000
    N3225    N        0.54630    0.35376    0.25709    1.000
    Si3226   Si       0.52835    0.31787    0.27743    1.000
    N3227    N        0.54091    0.30914    0.37273    1.000
    N3228    N        0.55931    0.28533    0.24988    1.000
    Si3229   Si       0.54132    0.48544    0.29756    1.000
    N3230    N        0.53674    0.46310    0.33280    1.000
    N3231    N        0.56857    0.40966    0.35219    1.000
    Si3232   Si       0.54628    0.26667    0.38465    1.000
    N3233    N        0.52415    0.37648    0.39950    1.000
    Si3234   Si       0.52850    0.33410    0.40696    1.000
    N3235    N        0.54576    0.32157    0.44788    1.000
    Si3236   Si       0.55548    0.27873    0.45766    1.000
    N3237    N        0.54565    0.50954    0.43512    1.000
    N3238    N        0.53757    0.44485    0.40469    1.000
    N3239    N        0.57011    0.38513    0.47675    1.000
    Si3240   Si       0.55569    0.40622    0.39373    1.000
    N3241    N        0.57220    0.45517    0.47454    1.000
    N3242    N        0.56531    0.30663    0.56426    1.000
    Si3243   Si       0.54104    0.27911    0.58832    1.000
    Si3244   Si       0.55862    0.33601    0.59529    1.000
    N3245    N        0.53423    0.37189    0.53930    1.000
    N3246    N        0.55062    0.27348    0.49982    1.000
    N3247    N        0.57914    0.37444    0.59078    1.000
    N3248    N        0.57003    0.47479    0.59292    1.000
    N3249    N        0.53187    0.49199    0.51622    1.000
    Si3250   Si       0.55373    0.39997    0.56781    1.000
    Si3251   Si       0.55336    0.45383    0.51307    1.000
    N3252    N        0.52975    0.42003    0.60217    1.000
    N3253    N        0.57511    0.43137    0.54369    1.000
    Si3254   Si       0.53182    0.38709    0.49756    1.000
    N3255    N        0.55875    0.30655    0.62611    1.000
    Si3256   Si       0.56918    0.34817    0.72560    1.000
    N3257    N        0.53037    0.36867    0.72711    1.000
    N3258    N        0.54837    0.28471    0.68643    1.000
    Si3259   Si       0.52398    0.29079    0.65227    1.000
    N3260    N        0.57444    0.44556    0.65519    1.000
    Si3261   Si       0.56981    0.46614    0.69295    1.000
    N3262    N        0.52378    0.48614    0.64118    1.000
    Si3263   Si       0.54731    0.45241    0.62402    1.000
    N3264    N        0.54459    0.44716    0.72130    1.000
    Si3265   Si       0.53804    0.33976    0.85893    1.000
    N3266    N        0.55948    0.31666    0.83000    1.000
    Si3267   Si       0.57113    0.27691    0.76002    1.000
    N3268    N        0.55279    0.37819    0.85234    1.000
    N3269    N        0.55345    0.31738    0.75332    1.000
    N3270    N        0.55809    0.43683    0.83416    1.000
    Si3271   Si       0.55123    0.44903    0.76471    1.000
    N3272    N        0.54690    0.48801    0.78408    1.000
    Si3273   Si       0.55117    0.48165    0.83430    1.000
    Si3274   Si       0.52590    0.41499    0.85374    1.000
    N3275    N        0.53152    0.31732    0.96554    1.000
    N3276    N        0.54217    0.31968    0.89719    1.000
    Si3277   Si       0.53277    0.27693    0.90099    1.000
    N3278    N        0.54647    0.37737    0.93532    1.000
    Si3279   Si       0.57271    0.32222    0.97746    1.000
    Si3280   Si       0.52322    0.34194    0.93093    1.000
    N3281    N        0.55147    0.48899    0.88082    1.000
    N3282    N        0.53016    0.43610    0.97105    1.000
    Si3283   Si       0.53764    0.41983    0.93033    1.000
    N3284    N        0.57871    0.42820    0.92107    1.000
    N3285    N        0.55658    0.60390    0.01494    1.000
    Si3286   Si       0.56519    0.61771    0.05461    1.000
    N3287    N        0.56673    0.53042    0.00538    1.000
    N3288    N        0.56961    0.57395    0.06757    1.000
    N3289    N        0.53104    0.62645    0.08085    1.000
    Si3290   Si       0.57347    0.57084    0.11115    1.000
    Si3291   Si       0.54308    0.70616    0.03628    1.000
    N3292    N        0.52968    0.74183    0.01902    1.000
    N3293    N        0.56404    0.71550    0.07425    1.000
    Si3294   Si       0.53172    0.72412    0.10837    1.000
    N3295    N        0.57589    0.68785    0.01591    1.000
    N3296    N        0.56841    0.59622    0.18248    1.000
    N3297    N        0.53511    0.57229    0.12892    1.000
    N3298    N        0.55844    0.52833    0.19112    1.000
    Si3299   Si       0.54169    0.56242    0.17065    1.000
    Si3300   Si       0.55047    0.63146    0.19969    1.000
    N3301    N        0.56235    0.74627    0.12823    1.000
    Si3302   Si       0.52421    0.71974    0.21623    1.000
    N3303    N        0.55770    0.66427    0.17079    1.000
    N3304    N        0.56245    0.63637    0.24074    1.000
    N3305    N        0.54658    0.75256    0.19412    1.000
    N3306    N        0.54493    0.58179    0.32875    1.000
    N3307    N        0.55344    0.52423    0.30567    1.000
    Si3308   Si       0.54829    0.56478    0.28576    1.000
    Si3309   Si       0.56824    0.54589    0.33951    1.000
    Si3310   Si       0.51524    0.59269    0.36007    1.000
    N3311    N        0.54491    0.66372    0.30746    1.000
    Si3312   Si       0.55753    0.72053    0.28495    1.000
    Si3313   Si       0.53497    0.65906    0.26525    1.000
    N3314    N        0.53028    0.72934    0.31668    1.000
    N3315    N        0.54130    0.69912    0.24970    1.000
    Si3316   Si       0.54739    0.54366    0.40740    1.000
    Si3317   Si       0.55900    0.58791    0.47418    1.000
    N3318    N        0.53874    0.62695    0.47491    1.000
    N3319    N        0.56767    0.57482    0.43167    1.000
    N3320    N        0.52909    0.62435    0.38602    1.000
    N3321    N        0.57250    0.52633    0.37653    1.000
    N3322    N        0.53422    0.55807    0.49435    1.000
    Si3323   Si       0.56815    0.65441    0.45829    1.000
    Si3324   Si       0.54437    0.71401    0.45817    1.000
    N3325    N        0.55256    0.68237    0.42622    1.000
    N3326    N        0.56160    0.75166    0.46850    1.000
    Si3327   Si       0.51947    0.66264    0.40503    1.000
    Si3328   Si       0.55595    0.52600    0.50948    1.000
    N3329    N        0.56667    0.53868    0.61689    1.000
    Si3330   Si       0.55319    0.51421    0.58315    1.000
    Si3331   Si       0.56683    0.63029    0.60130    1.000
    N3332    N        0.57624    0.52875    0.54928    1.000
    N3333    N        0.52497    0.63656    0.59548    1.000
    Si3334   Si       0.54920    0.72018    0.56123    1.000
    N3335    N        0.53984    0.71345    0.60397    1.000
    N3336    N        0.52284    0.68790    0.55026    1.000
    Si3337   Si       0.54983    0.52140    0.65260    1.000
    N3338    N        0.56644    0.59942    0.63188    1.000
    N3339    N        0.52402    0.55128    0.67005    1.000
    Si3340   Si       0.52507    0.58586    0.64157    1.000
    N3341    N        0.57378    0.62838    0.68831    1.000
    N3342    N        0.57480    0.50782    0.68538    1.000
    Si3343   Si       0.53061    0.75095    0.62378    1.000
    Si3344   Si       0.53030    0.71739    0.68690    1.000
    N3345    N        0.55854    0.74068    0.65692    1.000
    N3346    N        0.53165    0.68141    0.66369    1.000
    N3347    N        0.52578    0.65524    0.73194    1.000
    N3348    N        0.55474    0.71780    0.72314    1.000
    Si3349   Si       0.56665    0.69626    0.63899    1.000
    Si3350   Si       0.53335    0.64434    0.68949    1.000
    Si3351   Si       0.57745    0.75385    0.73389    1.000
    Si3352   Si       0.53578    0.57846    0.80830    1.000
    N3353    N        0.53096    0.62172    0.79499    1.000
    N3354    N        0.52593    0.58425    0.85154    1.000
    N3355    N        0.57294    0.56335    0.78891    1.000
    Si3356   Si       0.57746    0.51783    0.78383    1.000
    N3357    N        0.53808    0.65889    0.85792    1.000
    Si3358   Si       0.55024    0.65482    0.81698    1.000
    N3359    N        0.55361    0.68957    0.79179    1.000
    N3360    N        0.53862    0.75481    0.81352    1.000
    Si3361   Si       0.55527    0.68298    0.74902    1.000
    Si3362   Si       0.57378    0.72640    0.80671    1.000
    Si3363   Si       0.53836    0.62029    0.87514    1.000
    Si3364   Si       0.55323    0.53420    0.96499    1.000
    Si3365   Si       0.55598    0.61253    0.97166    1.000
    N3366    N        0.55974    0.57453    0.94785    1.000
    N3367    N        0.54326    0.73249    0.88471    1.000
    N3368    N        0.52334    0.63918    0.96299    1.000
    N3369    N        0.56123    0.69281    0.94266    1.000
    N3370    N        0.52828    0.75248    0.95175    1.000
    Si3371   Si       0.55852    0.73099    0.92523    1.000
    Si3372   Si       0.54643    0.82265    0.07200    1.000
    N3373    N        0.55760    0.84175    0.11080    1.000
    N3374    N        0.56529    0.78433    0.06390    1.000
    Si3375   Si       0.55926    0.77233    0.02381    1.000
    N3376    N        0.56464    0.84587    0.04321    1.000
    Si3377   Si       0.54251    0.88001    0.02812    1.000
    Si3378   Si       0.57840    0.83784    0.00180    1.000
    N3379    N        0.55561    0.91942    0.03846    1.000
    N3380    N        0.54390    0.98692    0.02271    1.000
    Si3381   Si       0.55187    0.99159    0.06514    1.000
    Si3382   Si       0.56363    0.94928    0.00900    1.000
    N3383    N        0.54526    0.92506    0.10569    1.000
    Si3384   Si       0.57660    0.92446    0.07534    1.000
    Si3385   Si       0.54515    0.84263    0.21172    1.000
    N3386    N        0.53727    0.82134    0.17463    1.000
    Si3387   Si       0.52503    0.83938    0.13786    1.000
    N3388    N        0.52375    0.81193    0.23555    1.000
    N3389    N        0.51420    0.88060    0.14984    1.000
    N3390    N        0.56715    0.99521    0.20270    1.000
    Si3391   Si       0.54241    0.91403    0.15049    1.000
    N3392    N        0.54896    0.92706    0.19467    1.000
    Si3393   Si       0.51832    0.91606    0.22222    1.000
    Si3394   Si       0.53704    0.77100    0.32893    1.000
    N3395    N        0.56828    0.79303    0.34786    1.000
    Si3396   Si       0.52723    0.77920    0.26284    1.000
    Si3397   Si       0.52696    0.87940    0.36109    1.000
    N3398    N        0.56722    0.76266    0.27232    1.000
    N3399    N        0.57583    0.92852    0.31887    1.000
    N3400    N        0.53413    0.97096    0.35310    1.000
    Si3401   Si       0.56781    0.92215    0.27521    1.000
    N3402    N        0.52613    0.92093    0.26454    1.000
    N3403    N        0.54050    0.00133    0.28171    1.000
    Si3404   Si       0.57481    0.96521    0.34036    1.000
    N3405    N        0.56051    0.86929    0.45187    1.000
    N3406    N        0.54548    0.80788    0.42210    1.000
    Si3407   Si       0.53670    0.83308    0.45604    1.000
    N3408    N        0.56572    0.87487    0.37864    1.000
    N3409    N        0.55232    0.81390    0.49258    1.000
    Si3410   Si       0.51888    0.80664    0.38656    1.000
    N3411    N        0.54417    0.96459    0.47830    1.000
    Si3412   Si       0.55289    0.89380    0.41772    1.000
    Si3413   Si       0.52647    0.00898    0.37470    1.000
    N3414    N        0.57635    0.92850    0.41787    1.000
    N3415    N        0.53930    0.79154    0.60963    1.000
    Si3416   Si       0.54133    0.79522    0.56654    1.000
    Si3417   Si       0.56426    0.86420    0.57615    1.000
    N3418    N        0.56980    0.82677    0.55572    1.000
    Si3419   Si       0.54136    0.77228    0.50141    1.000
    N3420    N        0.54394    0.75970    0.54317    1.000
    N3421    N        0.56239    0.85778    0.62017    1.000
    N3422    N        0.52213    0.87596    0.56974    1.000
    N3423    N        0.54843    0.93611    0.54481    1.000
    N3424    N        0.53974    0.92366    0.61642    1.000
    Si3425   Si       0.52348    0.91869    0.57582    1.000
    N3426    N        0.52776    0.98776    0.60265    1.000
    Si3427   Si       0.53049    0.99868    0.50113    1.000
    Si3428   Si       0.56361    0.81669    0.63643    1.000
    Si3429   Si       0.55938    0.82303    0.71647    1.000
    N3430    N        0.54399    0.81858    0.67586    1.000
    N3431    N        0.55430    0.78781    0.74446    1.000
    N3432    N        0.54740    0.85477    0.74502    1.000
    Si3433   Si       0.52618    0.95922    0.63455    1.000
    N3434    N        0.52220    0.96655    0.73274    1.000
    Si3435   Si       0.56213    0.98197    0.73196    1.000
    Si3436   Si       0.54896    0.89193    0.64455    1.000
    N3437    N        0.55928    0.97548    0.65923    1.000
    Si3438   Si       0.54184    0.79293    0.78776    1.000
    N3439    N        0.53415    0.87006    0.80319    1.000
    Si3440   Si       0.54835    0.76917    0.85860    1.000
    Si3441   Si       0.57313    0.85584    0.78120    1.000
    N3442    N        0.57092    0.85099    0.86617    1.000
    N3443    N        0.57713    0.81534    0.80164    1.000
    N3444    N        0.53953    0.93961    0.79777    1.000
    N3445    N        0.54582    0.91569    0.86066    1.000
    N3446    N        0.55763    0.98459    0.84587    1.000
    Si3447   Si       0.52596    0.90707    0.82363    1.000
    Si3448   Si       0.57282    0.96566    0.80752    1.000
    Si3449   Si       0.53095    0.79598    0.95642    1.000
    N3450    N        0.55359    0.81085    0.92279    1.000
    Si3451   Si       0.53846    0.84077    0.89487    1.000
    N3452    N        0.55573    0.87143    0.98752    1.000
    N3453    N        0.55139    0.80424    0.99437    1.000
    Si3454   Si       0.55275    0.95422    0.87836    1.000
    N3455    N        0.54999    0.88014    0.91821    1.000
    N3456    N        0.54815    0.93686    0.97039    1.000
    N3457    N        0.52189    0.95919    0.90691    1.000
    Si3458   Si       0.53785    0.89710    0.95721    1.000
    Si3459   Si       0.52655    0.96817    0.95012    1.000
    Si3460   Si       0.61507    0.01642    0.08226    1.000
    N3461    N        0.58670    0.09583    0.06069    1.000
    Si3462   Si       0.63169    0.09611    0.06985    1.000
    N3463    N        0.59515    0.03463    0.99977    1.000
    Si3464   Si       0.61771    0.21289    0.06372    1.000
    N3465    N        0.61760    0.17065    0.05442    1.000
    N3466    N        0.61682    0.23085    0.02523    1.000
    Si3467   Si       0.58712    0.13942    0.05375    1.000
    N3468    N        0.57961    0.22506    0.08319    1.000
    N3469    N        0.58920    0.08231    0.12620    1.000
    N3470    N        0.60830    0.01537    0.12711    1.000
    N3471    N        0.61355    0.12628    0.17215    1.000
    Si3472   Si       0.62758    0.09910    0.14061    1.000
    Si3473   Si       0.60008    0.02297    0.21100    1.000
    N3474    N        0.58990    0.05719    0.18825    1.000
    Si3475   Si       0.58375    0.10119    0.19674    1.000
    N3476    N        0.58153    0.11029    0.23749    1.000
    Si3477   Si       0.58102    0.04422    0.14588    1.000
    N3478    N        0.57932    0.18578    0.14490    1.000
    Si3479   Si       0.61906    0.24199    0.19223    1.000
    Si3480   Si       0.61307    0.16975    0.16669    1.000
    Si3481   Si       0.62743    0.18528    0.24236    1.000
    N3482    N        0.61841    0.19881    0.20116    1.000
    N3483    N        0.60121    0.11878    0.29620    1.000
    Si3484   Si       0.62077    0.11597    0.25643    1.000
    N3485    N        0.62415    0.10373    0.36082    1.000
    N3486    N        0.60123    0.02499    0.25403    1.000
    Si3487   Si       0.62689    0.13281    0.32830    1.000
    Si3488   Si       0.63583    0.04383    0.27287    1.000
    N3489    N        0.62912    0.17545    0.33918    1.000
    N3490    N        0.59272    0.17900    0.26683    1.000
    Si3491   Si       0.61071    0.20272    0.30454    1.000
    N3492    N        0.59473    0.24279    0.29534    1.000
    N3493    N        0.58588    0.09077    0.41716    1.000
    Si3494   Si       0.62153    0.11009    0.40405    1.000
    N3495    N        0.62869    0.02977    0.37890    1.000
    Si3496   Si       0.57717    0.17171    0.42416    1.000
    N3497    N        0.62305    0.22225    0.39743    1.000
    Si3498   Si       0.61308    0.23213    0.43985    1.000
    N3499    N        0.59190    0.19830    0.45724    1.000
    N3500    N        0.61449    0.15239    0.40678    1.000
    Si3501   Si       0.60758    0.18148    0.49297    1.000
    Si3502   Si       0.60835    0.05112    0.57428    1.000
    N3503    N        0.61710    0.07510    0.53801    1.000
    Si3504   Si       0.59273    0.10587    0.51858    1.000
    N3505    N        0.62856    0.06685    0.60981    1.000
    N3506    N        0.62136    0.01308    0.56321    1.000
    N3507    N        0.61339    0.13930    0.49729    1.000
    N3508    N        0.62993    0.13737    0.59920    1.000
    Si3509   Si       0.60698    0.17335    0.60863    1.000
    N3510    N        0.62077    0.20733    0.58746    1.000
    Si3511   Si       0.59263    0.22422    0.55961    1.000
    N3512    N        0.58554    0.19298    0.53070    1.000
    Si3513   Si       0.61578    0.10598    0.62532    1.000
    Si3514   Si       0.59043    0.05379    0.71773    1.000
    N3515    N        0.62607    0.05224    0.69522    1.000
    N3516    N        0.63491    0.11370    0.66309    1.000
    N3517    N        0.57664    0.22590    0.69422    1.000
    N3518    N        0.60519    0.17323    0.65260    1.000
    Si3519   Si       0.61008    0.25341    0.69700    1.000
    N3520    N        0.61667    0.09310    0.81768    1.000
    Si3521   Si       0.61193    0.05946    0.84377    1.000
    N3522    N        0.59691    0.05495    0.76023    1.000
    Si3523   Si       0.58956    0.09246    0.78268    1.000
    N3524    N        0.61981    0.02278    0.82172    1.000
    Si3525   Si       0.61322    0.01860    0.77748    1.000
    N3526    N        0.60106    0.12524    0.75555    1.000
    Si3527   Si       0.61072    0.22210    0.79514    1.000
    N3528    N        0.60465    0.19867    0.75804    1.000
    N3529    N        0.58100    0.20653    0.82412    1.000
    Si3530   Si       0.57977    0.16228    0.74647    1.000
    Si3531   Si       0.61019    0.04468    0.96057    1.000
    N3532    N        0.60239    0.11868    0.90057    1.000
    Si3533   Si       0.59763    0.10285    0.93941    1.000
    N3534    N        0.63152    0.08289    0.96017    1.000
    N3535    N        0.59524    0.01320    0.88820    1.000
    Si3536   Si       0.63566    0.02205    0.89762    1.000
    N3537    N        0.57607    0.18528    0.90375    1.000
    N3538    N        0.58635    0.13484    0.96561    1.000
    Si3539   Si       0.61634    0.19570    0.91743    1.000
    N3540    N        0.61504    0.22047    0.95313    1.000
    Si3541   Si       0.63044    0.26167    0.88598    1.000
    Si3542   Si       0.61120    0.36873    0.01106    1.000
    Si3543   Si       0.58559    0.26942    0.09352    1.000
    N3544    N        0.62755    0.28605    0.10227    1.000
    Si3545   Si       0.58486    0.25973    0.02182    1.000
    N3546    N        0.62352    0.35714    0.12330    1.000
    N3547    N        0.61260    0.37948    0.05328    1.000
    N3548    N        0.61275    0.47282    0.10542    1.000
    Si3549   Si       0.61332    0.43191    0.11711    1.000
    N3550    N        0.58382    0.46526    0.00942    1.000
    Si3551   Si       0.59609    0.30058    0.23514    1.000
    N3552    N        0.60725    0.30789    0.16839    1.000
    N3553    N        0.62392    0.27018    0.22434    1.000
    Si3554   Si       0.60939    0.35138    0.16151    1.000
    N3555    N        0.63003    0.37129    0.19396    1.000
    Si3556   Si       0.61765    0.41247    0.19748    1.000
    N3557    N        0.59371    0.40649    0.23544    1.000
    N3558    N        0.59950    0.42221    0.15864    1.000
    N3559    N        0.61913    0.50418    0.18025    1.000
    N3560    N        0.60715    0.30590    0.32281    1.000
    Si3561   Si       0.62475    0.27003    0.30781    1.000
    Si3562   Si       0.58520    0.37208    0.26211    1.000
    Si3563   Si       0.62222    0.33733    0.29687    1.000
    N3564    N        0.60012    0.37450    0.30332    1.000
    Si3565   Si       0.58392    0.31209    0.35863    1.000
    N3566    N        0.61486    0.33632    0.25209    1.000
    N3567    N        0.59447    0.35042    0.37340    1.000
    Si3568   Si       0.60193    0.38216    0.34520    1.000
    N3569    N        0.60542    0.46926    0.35005    1.000
    Si3570   Si       0.57740    0.44621    0.32817    1.000
    N3571    N        0.57440    0.45885    0.28485    1.000
    N3572    N        0.58900    0.27264    0.37479    1.000
    Si3573   Si       0.61890    0.36822    0.40680    1.000
    N3574    N        0.59849    0.27189    0.44822    1.000
    N3575    N        0.61131    0.33825    0.43985    1.000
    Si3576   Si       0.63204    0.29958    0.43986    1.000
    Si3577   Si       0.57944    0.34434    0.46797    1.000
    Si3578   Si       0.63080    0.26127    0.37719    1.000
    Si3579   Si       0.58209    0.49369    0.45274    1.000
    N3580    N        0.63399    0.42859    0.46391    1.000
    N3581    N        0.61190    0.48171    0.42476    1.000
    Si3582   Si       0.60063    0.49626    0.38552    1.000
    Si3583   Si       0.59205    0.42054    0.45896    1.000
    N3584    N        0.59316    0.40252    0.41801    1.000
    N3585    N        0.59560    0.32873    0.50712    1.000
    Si3586   Si       0.57947    0.29302    0.52542    1.000
    N3587    N        0.60752    0.25860    0.53856    1.000
    Si3588   Si       0.63419    0.34237    0.52237    1.000
    Si3589   Si       0.62073    0.38296    0.59477    1.000
    N3590    N        0.62949    0.48471    0.55360    1.000
    N3591    N        0.62659    0.42615    0.59501    1.000
    Si3592   Si       0.60188    0.45512    0.57214    1.000
    N3593    N        0.61661    0.27999    0.66181    1.000
    Si3594   Si       0.61203    0.37470    0.69218    1.000
    N3595    N        0.60622    0.27847    0.73297    1.000
    N3596    N        0.59854    0.37893    0.73428    1.000
    Si3597   Si       0.58204    0.30523    0.66484    1.000
    N3598    N        0.58305    0.34375    0.68448    1.000
    Si3599   Si       0.61714    0.44462    0.66144    1.000
    N3600    N        0.61041    0.45537    0.70461    1.000
    N3601    N        0.63104    0.40429    0.67034    1.000
    Si3602   Si       0.62064    0.46976    0.74422    1.000
    Si3603   Si       0.59755    0.29801    0.82553    1.000
    N3604    N        0.58948    0.26322    0.79868    1.000
    N3605    N        0.59931    0.26889    0.85773    1.000
    N3606    N        0.63271    0.32308    0.83135    1.000
    N3607    N        0.60714    0.38136    0.80464    1.000
    Si3608   Si       0.58508    0.40263    0.83603    1.000
    Si3609   Si       0.61389    0.40136    0.76735    1.000
    N3610    N        0.59635    0.43933    0.76781    1.000
    N3611    N        0.62189    0.41625    0.85914    1.000
    N3612    N        0.60184    0.51017    0.75072    1.000
    N3613    N        0.62190    0.28262    0.92434    1.000
    N3614    N        0.60198    0.34314    0.95309    1.000
    N3615    N        0.58773    0.27989    0.98342    1.000
    Si3616   Si       0.59429    0.25857    0.94527    1.000
    Si3617   Si       0.63682    0.32094    0.93716    1.000
    N3618    N        0.59484    0.40296    0.98431    1.000
    N3619    N        0.63685    0.45878    0.97015    1.000
    N3620    N        0.63395    0.40192    0.92745    1.000
    N3621    N        0.58016    0.50107    0.94784    1.000
    Si3622   Si       0.58973    0.38516    0.94331    1.000
    Si3623   Si       0.60697    0.49062    0.98138    1.000
    Si3624   Si       0.58643    0.49992    0.90498    1.000
    Si3625   Si       0.63531    0.41417    0.96998    1.000
    Si3626   Si       0.61668    0.43287    0.90065    1.000
    N3627    N        0.62060    0.47469    0.89379    1.000
    N3628    N        0.62004    0.57433    0.02718    1.000
    Si3629   Si       0.63669    0.61187    0.03701    1.000
    Si3630   Si       0.57652    0.56715    0.02482    1.000
    N3631    N        0.60623    0.63583    0.06196    1.000
    Si3632   Si       0.62105    0.63554    0.10365    1.000
    Si3633   Si       0.59791    0.68342    0.07064    1.000
    Si3634   Si       0.60961    0.71456    0.01711    1.000
    N3635    N        0.62945    0.70750    0.05371    1.000
    N3636    N        0.60055    0.67377    0.11444    1.000
    N3637    N        0.59764    0.75447    0.01387    1.000
    Si3638   Si       0.58097    0.75413    0.08985    1.000
    N3639    N        0.58950    0.53260    0.12488    1.000
    N3640    N        0.60163    0.60269    0.12401    1.000
    Si3641   Si       0.60777    0.60380    0.16585    1.000
    Si3642   Si       0.62726    0.53202    0.14716    1.000
    N3643    N        0.63472    0.61985    0.23325    1.000
    Si3644   Si       0.59200    0.51006    0.21346    1.000
    Si3645   Si       0.58109    0.75240    0.16701    1.000
    N3646    N        0.60692    0.71741    0.17303    1.000
    N3647    N        0.63332    0.69798    0.23695    1.000
    N3648    N        0.62303    0.64495    0.17297    1.000
    Si3649   Si       0.63000    0.73058    0.20819    1.000
    Si3650   Si       0.59654    0.67840    0.15802    1.000
    N3651    N        0.61107    0.55397    0.32699    1.000
    Si3652   Si       0.61813    0.54597    0.28360    1.000
    Si3653   Si       0.59835    0.61719    0.25798    1.000
    N3654    N        0.58719    0.57480    0.26886    1.000
    N3655    N        0.61664    0.51577    0.25103    1.000
    N3656    N        0.61010    0.63838    0.29334    1.000
    Si3657   Si       0.58723    0.66604    0.32054    1.000
    N3658    N        0.59540    0.70428    0.30080    1.000
    N3659    N        0.59853    0.65646    0.36240    1.000
    Si3660   Si       0.63306    0.71163    0.27945    1.000
    Si3661   Si       0.61813    0.55706    0.48727    1.000
    Si3662   Si       0.60659    0.59405    0.42406    1.000
    N3663    N        0.62218    0.58895    0.38341    1.000
    N3664    N        0.59100    0.52356    0.48323    1.000
    Si3665   Si       0.63085    0.73874    0.41360    1.000
    N3666    N        0.61911    0.69652    0.41770    1.000
    Si3667   Si       0.58823    0.67191    0.40170    1.000
    N3668    N        0.59549    0.63657    0.43011    1.000
    N3669    N        0.57384    0.68724    0.48582    1.000
    Si3670   Si       0.60895    0.61679    0.53639    1.000
    Si3671   Si       0.61806    0.52643    0.54961    1.000
    Si3672   Si       0.59323    0.57119    0.60344    1.000
    N3673    N        0.58995    0.60493    0.57446    1.000
    N3674    N        0.62900    0.55262    0.58214    1.000
    N3675    N        0.59412    0.59066    0.50166    1.000
    N3676    N        0.58613    0.66840    0.60833    1.000
    N3677    N        0.61222    0.66052    0.53857    1.000
    N3678    N        0.59408    0.71861    0.56037    1.000
    Si3679   Si       0.61199    0.68266    0.57732    1.000
    Si3680   Si       0.62408    0.74749    0.54486    1.000
    Si3681   Si       0.61279    0.68684    0.50342    1.000
    N3682    N        0.63374    0.72521    0.50820    1.000
    Si3683   Si       0.59368    0.59796    0.66477    1.000
    N3684    N        0.62562    0.58181    0.63847    1.000
    Si3685   Si       0.60410    0.52849    0.71049    1.000
    N3686    N        0.60410    0.57274    0.70100    1.000
    Si3687   Si       0.63025    0.59887    0.72328    1.000
    N3688    N        0.63816    0.63695    0.69856    1.000
    N3689    N        0.62837    0.73993    0.64321    1.000
    N3690    N        0.59808    0.67199    0.74437    1.000
    Si3691   Si       0.60219    0.65989    0.70154    1.000
    N3692    N        0.59815    0.68724    0.66845    1.000
    N3693    N        0.61228    0.58427    0.83819    1.000
    Si3694   Si       0.60727    0.54129    0.85249    1.000
    Si3695   Si       0.61239    0.57864    0.79339    1.000
    N3696    N        0.61848    0.60966    0.76379    1.000
    Si3697   Si       0.60839    0.62454    0.85635    1.000
    N3698    N        0.58520    0.51141    0.82830    1.000
    N3699    N        0.59111    0.64453    0.81926    1.000
    Si3700   Si       0.62503    0.70619    0.75449    1.000
    Si3701   Si       0.60908    0.64843    0.78002    1.000
    N3702    N        0.60678    0.72093    0.83611    1.000
    N3703    N        0.60031    0.74092    0.77075    1.000
    Si3704   Si       0.62595    0.75535    0.85213    1.000
    Si3705   Si       0.63520    0.68668    0.83509    1.000
    N3706    N        0.57889    0.61176    0.88773    1.000
    Si3707   Si       0.58849    0.57902    0.91597    1.000
    N3708    N        0.59290    0.54087    0.89368    1.000
    N3709    N        0.62590    0.58500    0.93515    1.000
    Si3710   Si       0.63474    0.62161    0.95752    1.000
    N3711    N        0.63486    0.52445    0.98118    1.000
    N3712    N        0.59280    0.63500    0.96589    1.000
    N3713    N        0.59539    0.75487    0.92670    1.000
    Si3714   Si       0.58591    0.67663    0.97567    1.000
    N3715    N        0.62465    0.69900    0.97908    1.000
    Si3716   Si       0.63919    0.75093    0.93076    1.000
    Si3717   Si       0.59606    0.86353    0.11454    1.000
    Si3718   Si       0.62991    0.78100    0.00498    1.000
    N3719    N        0.63057    0.83521    0.11725    1.000
    N3720    N        0.62222    0.76262    0.09578    1.000
    N3721    N        0.60796    0.89616    0.08495    1.000
    N3722    N        0.60637    0.95802    0.00440    1.000
    N3723    N        0.58941    0.96599    0.06949    1.000
    Si3724   Si       0.62354    0.96321    0.04269    1.000
    Si3725   Si       0.63479    0.79097    0.12619    1.000
    Si3726   Si       0.61535    0.80707    0.19691    1.000
    N3727    N        0.60821    0.78584    0.15962    1.000
    N3728    N        0.58911    0.83666    0.21429    1.000
    N3729    N        0.61055    0.77030    0.22038    1.000
    N3730    N        0.58635    0.89051    0.14859    1.000
    Si3731   Si       0.58029    0.95317    0.20998    1.000
    Si3732   Si       0.62498    0.91163    0.15507    1.000
    N3733    N        0.61779    0.93933    0.18945    1.000
    N3734    N        0.61458    0.81775    0.27328    1.000
    N3735    N        0.61424    0.85573    0.32980    1.000
    Si3736   Si       0.60568    0.77687    0.26334    1.000
    Si3737   Si       0.63055    0.81976    0.31237    1.000
    Si3738   Si       0.61093    0.85441    0.24891    1.000
    Si3739   Si       0.60316    0.79152    0.37112    1.000
    Si3740   Si       0.60778    0.86445    0.37129    1.000
    N3741    N        0.59060    0.88563    0.27299    1.000
    Si3742   Si       0.60699    0.89680    0.31611    1.000
    N3743    N        0.62360    0.90920    0.36179    1.000
    N3744    N        0.59537    0.99377    0.31514    1.000
    N3745    N        0.58819    0.95389    0.25323    1.000
    Si3746   Si       0.58260    0.99299    0.27457    1.000
    Si3747   Si       0.62894    0.00884    0.33807    1.000
    Si3748   Si       0.63370    0.82778    0.43150    1.000
    N3749    N        0.62828    0.87109    0.43787    1.000
    N3750    N        0.61134    0.79880    0.45697    1.000
    N3751    N        0.61709    0.82802    0.39024    1.000
    Si3752   Si       0.63175    0.77132    0.48445    1.000
    Si3753   Si       0.59896    0.88058    0.46930    1.000
    N3754    N        0.59697    0.76211    0.40354    1.000
    Si3755   Si       0.57663    0.78035    0.44015    1.000
    Si3756   Si       0.59850    0.00792    0.39875    1.000
    Si3757   Si       0.57989    0.95237    0.45514    1.000
    N3758    N        0.60422    0.92267    0.47754    1.000
    Si3759   Si       0.61476    0.93831    0.39692    1.000
    N3760    N        0.60117    0.98801    0.43857    1.000
    N3761    N        0.60308    0.97109    0.37313    1.000
    N3762    N        0.60976    0.78123    0.52033    1.000
    Si3763   Si       0.62726    0.87524    0.53968    1.000
    Si3764   Si       0.58720    0.81944    0.51726    1.000
    N3765    N        0.60877    0.85374    0.50326    1.000
    N3766    N        0.59331    0.89194    0.56028    1.000
    N3767    N        0.61200    0.96362    0.52798    1.000
    N3768    N        0.61312    0.94708    0.58850    1.000
    Si3769   Si       0.59109    0.93368    0.55404    1.000
    Si3770   Si       0.60488    0.00665    0.52301    1.000
    N3771    N        0.60319    0.80263    0.64187    1.000
    N3772    N        0.60012    0.83723    0.71163    1.000
    Si3773   Si       0.60958    0.87454    0.69063    1.000
    Si3774   Si       0.62791    0.80413    0.71458    1.000
    N3775    N        0.60161    0.77074    0.70327    1.000
    Si3776   Si       0.59701    0.76174    0.66173    1.000
    N3777    N        0.58207    0.90264    0.67033    1.000
    Si3778   Si       0.58989    0.94575    0.67154    1.000
    N3779    N        0.59060    0.95400    0.71459    1.000
    N3780    N        0.62864    0.95098    0.65525    1.000
    N3781    N        0.63098    0.90275    0.71493    1.000
    Si3782   Si       0.63136    0.94492    0.72803    1.000
    Si3783   Si       0.59264    0.82277    0.84112    1.000
    N3784    N        0.59025    0.78419    0.86319    1.000
    N3785    N        0.61071    0.87347    0.77600    1.000
    N3786    N        0.63456    0.83509    0.85066    1.000
    Si3787   Si       0.63710    0.76521    0.77873    1.000
    N3788    N        0.61235    0.95352    0.82364    1.000
    Si3789   Si       0.60844    0.98060    0.85887    1.000
    N3790    N        0.58221    0.99090    0.77289    1.000
    N3791    N        0.62015    0.82088    0.91941    1.000
    Si3792   Si       0.59001    0.79285    0.90803    1.000
    N3793    N        0.61557    0.82231    0.99441    1.000
    Si3794   Si       0.63853    0.85056    0.88970    1.000
    Si3795   Si       0.63193    0.92873    0.90201    1.000
    N3796    N        0.63186    0.89595    0.98963    1.000
    N3797    N        0.59475    0.94683    0.88680    1.000
    N3798    N        0.62022    0.88775    0.89707    1.000
    Si3799   Si       0.63388    0.93785    0.97982    1.000
    Si3800   Si       0.57515    0.89112    0.88456    1.000
    Si3801   Si       0.66806    0.03263    0.04741    1.000
    N3802    N        0.67614    0.05682    0.01147    1.000
    N3803    N        0.64601    0.11736    0.10609    1.000
    N3804    N        0.63871    0.05476    0.07300    1.000
    N3805    N        0.64169    0.11301    0.03213    1.000
    Si3806   Si       0.65554    0.09375    0.99515    1.000
    N3807    N        0.65217    0.22046    0.08881    1.000
    Si3808   Si       0.65080    0.15594    0.03023    1.000
    N3809    N        0.69317    0.15154    0.03703    1.000
    N3810    N        0.64952    0.17987    0.99388    1.000
    Si3811   Si       0.69364    0.23300    0.08056    1.000
    N3812    N        0.69127    0.12190    0.15954    1.000
    Si3813   Si       0.64521    0.02032    0.15332    1.000
    N3814    N        0.65118    0.06472    0.15447    1.000
    Si3815   Si       0.68535    0.06566    0.24082    1.000
    Si3816   Si       0.69177    0.07701    0.16286    1.000
    N3817    N        0.65002    0.17760    0.14325    1.000
    N3818    N        0.69039    0.24752    0.22983    1.000
    Si3819   Si       0.65919    0.21954    0.13232    1.000
    N3820    N        0.64236    0.25018    0.15741    1.000
    Si3821   Si       0.67444    0.14507    0.12619    1.000
    N3822    N        0.66600    0.11447    0.31669    1.000
    Si3823   Si       0.65288    0.07902    0.33902    1.000
    N3824    N        0.67493    0.02857    0.26125    1.000
    N3825    N        0.68543    0.06520    0.36386    1.000
    N3826    N        0.64388    0.07973    0.24803    1.000
    N3827    N        0.63466    0.04728    0.31474    1.000
    N3828    N        0.64917    0.20617    0.27540    1.000
    N3829    N        0.64935    0.25125    0.33976    1.000
    Si3830   Si       0.69132    0.21513    0.25917    1.000
    Si3831   Si       0.69258    0.14694    0.24919    1.000
    N3832    N        0.64815    0.14688    0.24431    1.000
    Si3833   Si       0.68492    0.25631    0.31704    1.000
    N3834    N        0.66993    0.01828    0.43048    1.000
    N3835    N        0.65531    0.08779    0.41842    1.000
    Si3836   Si       0.66203    0.04912    0.39941    1.000
    Si3837   Si       0.68260    0.09605    0.45245    1.000
    N3838    N        0.65817    0.08982    0.48826    1.000
    Si3839   Si       0.68500    0.22227    0.42312    1.000
    N3840    N        0.68820    0.13850    0.46441    1.000
    N3841    N        0.65334    0.23596    0.45114    1.000
    Si3842   Si       0.67814    0.22234    0.48436    1.000
    Si3843   Si       0.63759    0.18337    0.38038    1.000
    N3844    N        0.68081    0.18934    0.39446    1.000
    Si3845   Si       0.65016    0.05838    0.51481    1.000
    N3846    N        0.68408    0.09729    0.58488    1.000
    N3847    N        0.68773    0.04222    0.52874    1.000
    Si3848   Si       0.67275    0.06772    0.61483    1.000
    N3849    N        0.69789    0.03857    0.59499    1.000
    N3850    N        0.63790    0.02081    0.49711    1.000
    Si3851   Si       0.65807    0.13920    0.49601    1.000
    Si3852   Si       0.66810    0.13807    0.57828    1.000
    N3853    N        0.67823    0.14367    0.53469    1.000
    N3854    N        0.68317    0.17647    0.59222    1.000
    N3855    N        0.67267    0.24253    0.56381    1.000
    Si3856   Si       0.66230    0.21294    0.59389    1.000
    N3857    N        0.65140    0.18951    0.49513    1.000
    Si3858   Si       0.65323    0.08301    0.68642    1.000
    N3859    N        0.66674    0.09884    0.72518    1.000
    N3860    N        0.68330    0.06933    0.65815    1.000
    N3861    N        0.63847    0.15909    0.71502    1.000
    Si3862   Si       0.63946    0.15504    0.67202    1.000
    N3863    N        0.66190    0.23667    0.63021    1.000
    Si3864   Si       0.64154    0.19914    0.73169    1.000
    N3865    N        0.68059    0.17265    0.66374    1.000
    N3866    N        0.64522    0.22695    0.69885    1.000
    Si3867   Si       0.69022    0.24851    0.71852    1.000
    Si3868   Si       0.67167    0.21547    0.66652    1.000
    Si3869   Si       0.64988    0.12146    0.82410    1.000
    N3870    N        0.68409    0.09573    0.83553    1.000
    N3871    N        0.65457    0.00934    0.77112    1.000
    Si3872   Si       0.64334    0.12753    0.74580    1.000
    N3873    N        0.66284    0.13626    0.78419    1.000
    Si3874   Si       0.65848    0.19591    0.85582    1.000
    Si3875   Si       0.67631    0.22368    0.78741    1.000
    N3876    N        0.64662    0.21025    0.81546    1.000
    N3877    N        0.64843    0.15250    0.85466    1.000
    N3878    N        0.68265    0.20893    0.74532    1.000
    Si3879   Si       0.68162    0.07815    0.87468    1.000
    N3880    N        0.64324    0.05975    0.87688    1.000
    N3881    N        0.67805    0.10945    0.90348    1.000
    N3882    N        0.68531    0.12363    0.97618    1.000
    N3883    N        0.63767    0.01862    0.94008    1.000
    N3884    N        0.64488    0.16434    0.92525    1.000
    N3885    N        0.63496    0.21813    0.88572    1.000
    N3886    N        0.67264    0.24887    0.98411    1.000
    Si3887   Si       0.63847    0.22183    0.98904    1.000
    Si3888   Si       0.64461    0.13446    0.89371    1.000
    Si3889   Si       0.66953    0.16376    0.96024    1.000
    N3890    N        0.66932    0.34145    0.07975    1.000
    Si3891   Si       0.65777    0.30010    0.07363    1.000
    N3892    N        0.64898    0.29718    0.03222    1.000
    Si3893   Si       0.64101    0.37428    0.08656    1.000
    N3894    N        0.63217    0.50747    0.04862    1.000
    N3895    N        0.68289    0.47058    0.08398    1.000
    N3896    N        0.64974    0.41399    0.10140    1.000
    Si3897   Si       0.64737    0.49428    0.08645    1.000
    Si3898   Si       0.68978    0.42965    0.09626    1.000
    Si3899   Si       0.64026    0.29270    0.14320    1.000
    N3900    N        0.67569    0.32004    0.23121    1.000
    Si3901   Si       0.64889    0.35639    0.23057    1.000
    N3902    N        0.68272    0.30431    0.14239    1.000
    Si3903   Si       0.66383    0.28036    0.24211    1.000
    N3904    N        0.68458    0.47870    0.15789    1.000
    N3905    N        0.64454    0.44561    0.20885    1.000
    N3906    N        0.67626    0.50764    0.22065    1.000
    Si3907   Si       0.65557    0.48360    0.19069    1.000
    Si3908   Si       0.67838    0.43020    0.23254    1.000
    N3909    N        0.67233    0.38910    0.24460    1.000
    N3910    N        0.66329    0.35056    0.30177    1.000
    N3911    N        0.66037    0.27718    0.28506    1.000
    Si3912   Si       0.69010    0.37610    0.28269    1.000
    Si3913   Si       0.65902    0.49801    0.26183    1.000
    N3914    N        0.68032    0.46320    0.34670    1.000
    Si3915   Si       0.64517    0.48928    0.33950    1.000
    N3916    N        0.67692    0.45590    0.26861    1.000
    N3917    N        0.63615    0.39639    0.36593    1.000
    Si3918   Si       0.67224    0.35414    0.45707    1.000
    N3919    N        0.66938    0.30997    0.46126    1.000
    N3920    N        0.65946    0.37515    0.42176    1.000
    N3921    N        0.65051    0.29110    0.40175    1.000
    N3922    N        0.65539    0.36927    0.49332    1.000
    Si3923   Si       0.66066    0.41314    0.49449    1.000
    N3924    N        0.66940    0.44759    0.40901    1.000
    Si3925   Si       0.64904    0.46503    0.44227    1.000
    N3926    N        0.67412    0.49079    0.46806    1.000
    Si3927   Si       0.66674    0.40739    0.39291    1.000
    Si3928   Si       0.66118    0.33593    0.59119    1.000
    N3929    N        0.65902    0.30493    0.53028    1.000
    Si3930   Si       0.64288    0.27466    0.55637    1.000
    N3931    N        0.64439    0.29460    0.59509    1.000
    Si3932   Si       0.68910    0.29821    0.49995    1.000
    N3933    N        0.64523    0.35993    0.62378    1.000
    N3934    N        0.63901    0.36001    0.56184    1.000
    Si3935   Si       0.66692    0.46657    0.54828    1.000
    Si3936   Si       0.66167    0.44710    0.61338    1.000
    N3937    N        0.65724    0.42856    0.53438    1.000
    N3938    N        0.68860    0.46795    0.58683    1.000
    Si3939   Si       0.66211    0.36252    0.73691    1.000
    Si3940   Si       0.68349    0.32270    0.69023    1.000
    Si3941   Si       0.65236    0.27792    0.63556    1.000
    N3942    N        0.67389    0.28896    0.71834    1.000
    N3943    N        0.64847    0.35047    0.69734    1.000
    N3944    N        0.68595    0.29646    0.65419    1.000
    Si3945   Si       0.66395    0.37996    0.65682    1.000
    N3946    N        0.68396    0.41640    0.63546    1.000
    N3947    N        0.63973    0.47322    0.63984    1.000
    Si3948   Si       0.66229    0.50521    0.65906    1.000
    Si3949   Si       0.67908    0.49946    0.71908    1.000
    Si3950   Si       0.66372    0.31851    0.86460    1.000
    N3951    N        0.64793    0.33195    0.76652    1.000
    N3952    N        0.67092    0.37979    0.82644    1.000
    Si3953   Si       0.64572    0.29196    0.75063    1.000
    Si3954   Si       0.64279    0.35492    0.80435    1.000
    N3955    N        0.65705    0.26138    0.77866    1.000
    Si3956   Si       0.68227    0.43437    0.76978    1.000
    N3957    N        0.67656    0.44327    0.81255    1.000
    Si3958   Si       0.66041    0.41722    0.84507    1.000
    N3959    N        0.65865    0.40021    0.75897    1.000
    N3960    N        0.66449    0.46870    0.74822    1.000
    N3961    N        0.66872    0.27627    0.87232    1.000
    Si3962   Si       0.68467    0.35987    0.97825    1.000
    N3963    N        0.65348    0.33997    0.90066    1.000
    N3964    N        0.66727    0.31833    0.96651    1.000
    Si3965   Si       0.66944    0.38063    0.91140    1.000
    Si3966   Si       0.67637    0.28867    0.99880    1.000
    N3967    N        0.68938    0.47431    0.87112    1.000
    N3968    N        0.65000    0.37840    0.99396    1.000
    N3969    N        0.69644    0.45201    0.94009    1.000
    Si3970   Si       0.65692    0.49765    0.88409    1.000
    Si3971   Si       0.66837    0.48486    0.95354    1.000
    N3972    N        0.68856    0.40729    0.87984    1.000
    N3973    N        0.67462    0.60615    0.05820    1.000
    Si3974   Si       0.64467    0.53814    0.02155    1.000
    N3975    N        0.68578    0.54986    0.02243    1.000
    N3976    N        0.65733    0.52362    0.11707    1.000
    N3977    N        0.65381    0.63125    0.00052    1.000
    Si3978   Si       0.65108    0.74442    0.06826    1.000
    N3979    N        0.66320    0.64236    0.11403    1.000
    Si3980   Si       0.69124    0.64693    0.01518    1.000
    N3981    N        0.69051    0.73143    0.08204    1.000
    Si3982   Si       0.69399    0.63536    0.08535    1.000
    N3983    N        0.63584    0.56953    0.16794    1.000
    N3984    N        0.69110    0.57547    0.22131    1.000
    Si3985   Si       0.67676    0.57774    0.17963    1.000
    N3986    N        0.68994    0.61708    0.17103    1.000
    N3987    N        0.67208    0.74468    0.20608    1.000
    Si3988   Si       0.66397    0.64873    0.15698    1.000
    N3989    N        0.67514    0.67582    0.18998    1.000
    Si3990   Si       0.64090    0.66089    0.21315    1.000
    N3991    N        0.65403    0.57041    0.27781    1.000
    N3992    N        0.68146    0.56072    0.34779    1.000
    N3993    N        0.65777    0.62301    0.33474    1.000
    Si3994   Si       0.68455    0.54562    0.30290    1.000
    Si3995   Si       0.63938    0.55745    0.35963    1.000
    Si3996   Si       0.67076    0.59975    0.24904    1.000
    N3997    N        0.65408    0.51042    0.30382    1.000
    Si3998   Si       0.63299    0.62980    0.36952    1.000
    N3999    N        0.68619    0.62993    0.27534    1.000
    Si4000   Si       0.65206    0.64496    0.29873    1.000
    N4001    N        0.65878    0.68750    0.30451    1.000
    N4002    N        0.63989    0.75370    0.27858    1.000
    N4003    N        0.63866    0.51684    0.37280    1.000
    Si4004   Si       0.67887    0.58355    0.44839    1.000
    N4005    N        0.63660    0.57445    0.45088    1.000
    N4006    N        0.66604    0.74312    0.38775    1.000
    Si4007   Si       0.66886    0.71665    0.47945    1.000
    Si4008   Si       0.64867    0.66910    0.43606    1.000
    N4009    N        0.64929    0.74674    0.45293    1.000
    N4010    N        0.68367    0.69677    0.44189    1.000
    N4011    N        0.64385    0.66327    0.47811    1.000
    N4012    N        0.66086    0.64022    0.40511    1.000
    Si4013   Si       0.66680    0.57154    0.54743    1.000
    N4014    N        0.65120    0.60748    0.53158    1.000
    N4015    N        0.68207    0.58371    0.58815    1.000
    N4016    N        0.64698    0.54253    0.51919    1.000
    Si4017   Si       0.68437    0.52321    0.50236    1.000
    Si4018   Si       0.65690    0.56421    0.61503    1.000
    Si4019   Si       0.66755    0.63818    0.50562    1.000
    N4020    N        0.65310    0.69550    0.58965    1.000
    Si4021   Si       0.65799    0.73131    0.61283    1.000
    N4022    N        0.68781    0.66598    0.53202    1.000
    Si4023   Si       0.68962    0.67579    0.57515    1.000
    N4024    N        0.67288    0.59452    0.72786    1.000
    N4025    N        0.68027    0.53464    0.63456    1.000
    N4026    N        0.64470    0.51669    0.69736    1.000
    Si4027   Si       0.67937    0.63450    0.70865    1.000
    Si4028   Si       0.63627    0.70487    0.66889    1.000
    Si4029   Si       0.67956    0.71312    0.72456    1.000
    N4030    N        0.68801    0.67155    0.73201    1.000
    N4031    N        0.63855    0.71082    0.71159    1.000
    N4032    N        0.67543    0.69456    0.65654    1.000
    Si4033   Si       0.67158    0.54380    0.82373    1.000
    N4034    N        0.65126    0.55798    0.78789    1.000
    N4035    N        0.64779    0.52489    0.85266    1.000
    Si4036   Si       0.68384    0.56702    0.75847    1.000
    N4037    N        0.69692    0.57706    0.83928    1.000
    N4038    N        0.67557    0.70680    0.83716    1.000
    N4039    N        0.66158    0.73073    0.76529    1.000
    Si4040   Si       0.67884    0.70260    0.79291    1.000
    N4041    N        0.63950    0.68095    0.79111    1.000
    N4042    N        0.63905    0.65476    0.86582    1.000
    N4043    N        0.68670    0.57377    0.95484    1.000
    Si4044   Si       0.65068    0.55008    0.94822    1.000
    N4045    N        0.66004    0.51425    0.92313    1.000
    N4046    N        0.65536    0.65143    0.93630    1.000
    Si4047   Si       0.67187    0.65400    0.89647    1.000
    N4048    N        0.69286    0.68278    0.98864    1.000
    N4049    N        0.67200    0.72303    0.93677    1.000
    Si4050   Si       0.66147    0.68755    0.96087    1.000
    N4051    N        0.64960    0.76180    0.88858    1.000
    N4052    N        0.67519    0.84863    0.03312    1.000
    N4053    N        0.65460    0.77550    0.03861    1.000
    Si4054   Si       0.68503    0.80602    0.03615    1.000
    N4055    N        0.67900    0.88750    0.10027    1.000
    N4056    N        0.65583    0.93423    0.04948    1.000
    Si4057   Si       0.64864    0.91489    0.08822    1.000
    Si4058   Si       0.68814    0.93590    0.02040    1.000
    N4059    N        0.64231    0.99816    0.05277    1.000
    N4060    N        0.67592    0.77709    0.13179    1.000
    Si4061   Si       0.66792    0.85814    0.13243    1.000
    N4062    N        0.65616    0.82176    0.20581    1.000
    Si4063   Si       0.66768    0.86548    0.20478    1.000
    Si4064   Si       0.68472    0.78595    0.21013    1.000
    N4065    N        0.65355    0.88120    0.16574    1.000
    N4066    N        0.64354    0.88240    0.23542    1.000
    N4067    N        0.63685    0.00709    0.19344    1.000
    Si4068   Si       0.68375    0.95682    0.13871    1.000
    N4069    N        0.68704    0.95313    0.18000    1.000
    N4070    N        0.66195    0.95659    0.24163    1.000
    N4071    N        0.64621    0.93859    0.12688    1.000
    N4072    N        0.67897    0.00139    0.13386    1.000
    Si4073   Si       0.65069    0.96594    0.20097    1.000
    N4074    N        0.67357    0.82090    0.30553    1.000
    Si4075   Si       0.67438    0.77982    0.28784    1.000
    Si4076   Si       0.67496    0.77187    0.35593    1.000
    N4077    N        0.63534    0.78610    0.34169    1.000
    Si4078   Si       0.65118    0.93713    0.33835    1.000
    N4079    N        0.66394    0.98079    0.33440    1.000
    Si4080   Si       0.68933    0.98827    0.25800    1.000
    N4081    N        0.63924    0.92421    0.29896    1.000
    N4082    N        0.69147    0.92628    0.34602    1.000
    Si4083   Si       0.63726    0.92173    0.25572    1.000
    N4084    N        0.67641    0.82101    0.43473    1.000
    N4085    N        0.68795    0.87254    0.39351    1.000
    N4086    N        0.67089    0.78832    0.49949    1.000
    N4087    N        0.66052    0.96757    0.47331    1.000
    Si4088   Si       0.63845    0.00239    0.45501    1.000
    Si4089   Si       0.66338    0.89065    0.42339    1.000
    N4090    N        0.68332    0.90274    0.46027    1.000
    Si4091   Si       0.68109    0.94443    0.44490    1.000
    N4092    N        0.65340    0.93284    0.41416    1.000
    Si4093   Si       0.67117    0.82164    0.53014    1.000
    N4094    N        0.65060    0.84478    0.55998    1.000
    Si4095   Si       0.66986    0.85910    0.59630    1.000
    Si4096   Si       0.68024    0.78529    0.59425    1.000
    N4097    N        0.67652    0.82038    0.62095    1.000
    N4098    N        0.64599    0.76291    0.57930    1.000
    Si4099   Si       0.63673    0.94137    0.50064    1.000
    N4100    N        0.65409    0.90828    0.52529    1.000
    N4101    N        0.66960    0.97081    0.60207    1.000
    N4102    N        0.67685    0.97177    0.53794    1.000
    N4103    N        0.65931    0.89741    0.61596    1.000
    Si4104   Si       0.67812    0.00146    0.50668    1.000
    Si4105   Si       0.64167    0.97369    0.56595    1.000
    Si4106   Si       0.64445    0.93835    0.61668    1.000
    Si4107   Si       0.69240    0.89490    0.50229    1.000
    N4108    N        0.64198    0.86127    0.66519    1.000
    N4109    N        0.66127    0.79943    0.68649    1.000
    Si4110   Si       0.64424    0.81843    0.65074    1.000
    Si4111   Si       0.67897    0.00090    0.73574    1.000
    Si4112   Si       0.67715    0.88882    0.65701    1.000
    Si4113   Si       0.66662    0.96719    0.67085    1.000
    N4114    N        0.69043    0.93151    0.65951    1.000
    N4115    N        0.68889    0.00229    0.65555    1.000
    N4116    N        0.65439    0.97498    0.70994    1.000
    Si4117   Si       0.66734    0.81309    0.83106    1.000
    Si4118   Si       0.67871    0.82824    0.75881    1.000
    N4119    N        0.68721    0.83628    0.79986    1.000
    N4120    N        0.64459    0.80136    0.75471    1.000
    N4121    N        0.64434    0.77606    0.81854    1.000
    N4122    N        0.68075    0.87059    0.74703    1.000
    Si4123   Si       0.64429    0.89184    0.75392    1.000
    Si4124   Si       0.64734    0.93369    0.81168    1.000
    N4125    N        0.67894    0.96407    0.81242    1.000
    N4126    N        0.66877    0.89655    0.82455    1.000
    Si4127   Si       0.68478    0.89078    0.86458    1.000
    Si4128   Si       0.66230    0.00464    0.81844    1.000
    N4129    N        0.64525    0.93352    0.76840    1.000
    N4130    N        0.67079    0.84774    0.96289    1.000
    N4131    N        0.64837    0.77816    0.96519    1.000
    Si4132   Si       0.69001    0.77460    0.88865    1.000
    N4133    N        0.67901    0.85947    0.89478    1.000
    Si4134   Si       0.69364    0.77595    0.95966    1.000
    Si4135   Si       0.66556    0.87093    0.99820    1.000
    N4136    N        0.69745    0.79994    0.92443    1.000
    Si4137   Si       0.63809    0.82005    0.95695    1.000
    N4138    N        0.65139    0.99216    0.86909    1.000
    N4139    N        0.63491    0.94944    0.93866    1.000
    N4140    N        0.67181    0.96035    0.98776    1.000
    N4141    N        0.67235    0.92993    0.88121    1.000
    Si4142   Si       0.68655    0.97085    0.87974    1.000
    Si4143   Si       0.66333    0.98124    0.95156    1.000
    N4144    N        0.73279    0.09348    0.01628    1.000
    Si4145   Si       0.70984    0.02448    0.11064    1.000
    N4146    N        0.70494    0.02010    0.06564    1.000
    N4147    N        0.73599    0.02129    0.99836    1.000
    N4148    N        0.75420    0.01108    0.11875    1.000
    Si4149   Si       0.71497    0.12979    0.00907    1.000
    Si4150   Si       0.72311    0.17095    0.06399    1.000
    N4151    N        0.72238    0.21322    0.05514    1.000
    N4152    N        0.70514    0.16792    0.10347    1.000
    Si4153   Si       0.75332    0.23373    0.02979    1.000
    N4154    N        0.75257    0.12093    0.12819    1.000
    Si4155   Si       0.74379    0.09025    0.23089    1.000
    N4156    N        0.71847    0.06132    0.13383    1.000
    Si4157   Si       0.73258    0.13459    0.16614    1.000
    N4158    N        0.70420    0.10619    0.24320    1.000
    N4159    N        0.70082    0.05876    0.20072    1.000
    Si4160   Si       0.74169    0.19202    0.21004    1.000
    N4161    N        0.70258    0.23088    0.12752    1.000
    N4162    N        0.70560    0.18356    0.23036    1.000
    Si4163   Si       0.73726    0.20626    0.13512    1.000
    N4164    N        0.73614    0.17679    0.17025    1.000
    N4165    N        0.73455    0.09439    0.32143    1.000
    Si4166   Si       0.72780    0.07309    0.36116    1.000
    N4167    N        0.74627    0.05312    0.25696    1.000
    N4168    N        0.74888    0.03801    0.35303    1.000
    Si4169   Si       0.70876    0.12875    0.31878    1.000
    N4170    N        0.71908    0.16276    0.34691    1.000
    Si4171   Si       0.73034    0.18783    0.31456    1.000
    N4172    N        0.72013    0.15481    0.28475    1.000
    N4173    N        0.71030    0.22366    0.29849    1.000
    N4174    N        0.71545    0.07018    0.45770    1.000
    N4175    N        0.74385    0.09174    0.39821    1.000
    N4176    N        0.74678    0.02008    0.41778    1.000
    Si4177   Si       0.74885    0.06182    0.42981    1.000
    N4178    N        0.70509    0.25759    0.41093    1.000
    Si4179   Si       0.74677    0.25282    0.40113    1.000
    Si4180   Si       0.72338    0.16588    0.46095    1.000
    Si4181   Si       0.72166    0.17976    0.38573    1.000
    N4182    N        0.73536    0.15736    0.42036    1.000
    N4183    N        0.75134    0.21141    0.38560    1.000
    N4184    N        0.70783    0.20486    0.45824    1.000
    N4185    N        0.74832    0.15121    0.49657    1.000
    N4186    N        0.72247    0.09366    0.52297    1.000
    Si4187   Si       0.71037    0.06826    0.56220    1.000
    Si4188   Si       0.72340    0.05763    0.49919    1.000
    Si4189   Si       0.75000    0.11718    0.60071    1.000
    N4190    N        0.75215    0.07773    0.57958    1.000
    Si4191   Si       0.72200    0.13538    0.52782    1.000
    N4192    N        0.73685    0.14334    0.56862    1.000
    Si4193   Si       0.71092    0.24336    0.54591    1.000
    Si4194   Si       0.72701    0.18124    0.58658    1.000
    N4195    N        0.73243    0.20631    0.55202    1.000
    N4196    N        0.69818    0.25525    0.50578    1.000
    Si4197   Si       0.70368    0.03629    0.67643    1.000
    N4198    N        0.73331    0.11837    0.64165    1.000
    N4199    N        0.74495    0.04199    0.66406    1.000
    N4200    N        0.73311    0.09574    0.70803    1.000
    Si4201   Si       0.70366    0.07724    0.73426    1.000
    Si4202   Si       0.75013    0.08481    0.66807    1.000
    Si4203   Si       0.74897    0.13247    0.72514    1.000
    N4204    N        0.69737    0.03735    0.71922    1.000
    N4205    N        0.72954    0.24999    0.74078    1.000
    N4206    N        0.74823    0.16224    0.69383    1.000
    N4207    N        0.74548    0.25451    0.62695    1.000
    N4208    N        0.74001    0.18598    0.62743    1.000
    Si4209   Si       0.72495    0.15787    0.65831    1.000
    N4210    N        0.70765    0.23758    0.68060    1.000
    Si4211   Si       0.73561    0.02833    0.85262    1.000
    Si4212   Si       0.70763    0.06806    0.81225    1.000
    N4213    N        0.71078    0.09078    0.77580    1.000
    N4214    N        0.74861    0.05977    0.82421    1.000
    Si4215   Si       0.70587    0.13298    0.78505    1.000
    N4216    N        0.69501    0.02978    0.82767    1.000
    N4217    N        0.72387    0.15308    0.81975    1.000
    N4218    N        0.71965    0.21841    0.79725    1.000
    Si4219   Si       0.73594    0.19767    0.83514    1.000
    Si4220   Si       0.72476    0.19693    0.75288    1.000
    N4221    N        0.70037    0.20812    0.86031    1.000
    N4222    N        0.72191    0.15261    0.75128    1.000
    N4223    N        0.71669    0.06947    0.95240    1.000
    N4224    N        0.71985    0.05802    0.88463    1.000
    Si4225   Si       0.74326    0.05480    0.92224    1.000
    Si4226   Si       0.70333    0.10874    0.93963    1.000
    N4227    N        0.73782    0.13292    0.92624    1.000
    Si4228   Si       0.71600    0.06055    0.99461    1.000
    Si4229   Si       0.74341    0.16831    0.95156    1.000
    N4230    N        0.71027    0.24715    0.92222    1.000
    N4231    N        0.74528    0.23760    0.98666    1.000
    N4232    N        0.74804    0.15356    0.99137    1.000
    N4233    N        0.70524    0.18903    0.95658    1.000
    Si4234   Si       0.70846    0.23134    0.96177    1.000
    Si4235   Si       0.70112    0.24755    0.87873    1.000
    Si4236   Si       0.72854    0.29660    0.05465    1.000
    N4237    N        0.74055    0.33778    0.06761    1.000
    Si4238   Si       0.70849    0.35516    0.08833    1.000
    N4239    N        0.71588    0.30062    0.01194    1.000
    N4240    N        0.71771    0.36597    0.00355    1.000
    N4241    N        0.75361    0.28877    0.11344    1.000
    Si4242   Si       0.74412    0.33188    0.99713    1.000
    N4243    N        0.69736    0.27765    0.08050    1.000
    N4244    N        0.70522    0.43286    0.01176    1.000
    Si4245   Si       0.72240    0.39999    0.03199    1.000
    N4246    N        0.70715    0.39611    0.07325    1.000
    Si4247   Si       0.71303    0.27638    0.12589    1.000
    Si4248   Si       0.72791    0.26357    0.21356    1.000
    N4249    N        0.72728    0.35397    0.12825    1.000
    Si4250   Si       0.71778    0.33265    0.23165    1.000
    Si4251   Si       0.71594    0.32716    0.16175    1.000
    N4252    N        0.72359    0.35442    0.19445    1.000
    N4253    N        0.73299    0.28538    0.17399    1.000
    N4254    N        0.73761    0.29528    0.23881    1.000
    N4255    N        0.75317    0.47897    0.17027    1.000
    Si4256   Si       0.71916    0.45335    0.16612    1.000
    Si4257   Si       0.73765    0.39484    0.20248    1.000
    N4258    N        0.71046    0.43055    0.20307    1.000
    N4259    N        0.71808    0.42677    0.12918    1.000
    Si4260   Si       0.74639    0.39447    0.12731    1.000
    N4261    N        0.72613    0.35616    0.26768    1.000
    Si4262   Si       0.73095    0.31388    0.35990    1.000
    N4263    N        0.74065    0.34981    0.33873    1.000
    N4264    N        0.71192    0.28762    0.33200    1.000
    Si4265   Si       0.72870    0.39194    0.34396    1.000
    N4266    N        0.73490    0.46782    0.31207    1.000
    N4267    N        0.70347    0.40618    0.31140    1.000
    Si4268   Si       0.74564    0.49931    0.28162    1.000
    Si4269   Si       0.69646    0.44949    0.30798    1.000
    Si4270   Si       0.72140    0.36745    0.41105    1.000
    N4271    N        0.71686    0.36706    0.45576    1.000
    N4272    N        0.70940    0.32763    0.39671    1.000
    N4273    N        0.73403    0.30319    0.45323    1.000
    Si4274   Si       0.74522    0.33514    0.48446    1.000
    Si4275   Si       0.69695    0.29748    0.42638    1.000
    Si4276   Si       0.72341    0.46593    0.49524    1.000
    N4277    N        0.74174    0.49418    0.46408    1.000
    N4278    N        0.74062    0.45245    0.38601    1.000
    N4279    N        0.70576    0.39424    0.38060    1.000
    Si4280   Si       0.73364    0.40050    0.48028    1.000
    N4281    N        0.70182    0.42936    0.48694    1.000
    Si4282   Si       0.69985    0.46997    0.38496    1.000
    N4283    N        0.72012    0.32479    0.51787    1.000
    N4284    N        0.73648    0.27472    0.56491    1.000
    Si4285   Si       0.73087    0.31819    0.55891    1.000
    N4286    N        0.70520    0.33792    0.59033    1.000
    Si4287   Si       0.72221    0.49097    0.56851    1.000
    N4288    N        0.70293    0.48950    0.52823    1.000
    Si4289   Si       0.72668    0.35338    0.62557    1.000
    Si4290   Si       0.72753    0.37113    0.69916    1.000
    Si4291   Si       0.72407    0.27401    0.65867    1.000
    N4292    N        0.70273    0.35019    0.72732    1.000
    N4293    N        0.70257    0.35761    0.66272    1.000
    N4294    N        0.74993    0.28906    0.68962    1.000
    Si4295   Si       0.72394    0.42256    0.65122    1.000
    Si4296   Si       0.73759    0.48696    0.67429    1.000
    N4297    N        0.74671    0.39227    0.62701    1.000
    N4298    N        0.72431    0.41488    0.69435    1.000
    N4299    N        0.74867    0.45776    0.64444    1.000
    Si4300   Si       0.74521    0.43978    0.72532    1.000
    N4301    N        0.69496    0.48360    0.68133    1.000
    N4302    N        0.72082    0.29198    0.80164    1.000
    Si4303   Si       0.73644    0.30663    0.83925    1.000
    Si4304   Si       0.71099    0.37505    0.85386    1.000
    N4305    N        0.70461    0.33108    0.85381    1.000
    N4306    N        0.73641    0.27020    0.86233    1.000
    Si4307   Si       0.73595    0.25786    0.78370    1.000
    N4308    N        0.74412    0.39139    0.82547    1.000
    N4309    N        0.72670    0.43007    0.76473    1.000
    N4310    N        0.74194    0.46289    0.82618    1.000
    Si4311   Si       0.70186    0.47493    0.82959    1.000
    Si4312   Si       0.75102    0.42668    0.80079    1.000
    Si4313   Si       0.74169    0.36952    0.93010    1.000
    N4314    N        0.70123    0.37390    0.94048    1.000
    N4315    N        0.74675    0.37088    0.88534    1.000
    N4316    N        0.74988    0.44517    0.89462    1.000
    N4317    N        0.69860    0.49758    0.98109    1.000
    Si4318   Si       0.70574    0.44309    0.89760    1.000
    Si4319   Si       0.71648    0.45845    0.98036    1.000
    N4320    N        0.74220    0.57587    0.06343    1.000
    N4321    N        0.72333    0.61749    0.01345    1.000
    Si4322   Si       0.70737    0.58531    0.03728    1.000
    N4323    N        0.74552    0.51493    0.03272    1.000
    Si4324   Si       0.71865    0.52988    0.00153    1.000
    N4325    N        0.73442    0.51307    0.10724    1.000
    N4326    N        0.73303    0.63030    0.10478    1.000
    Si4327   Si       0.75270    0.53354    0.07182    1.000
    N4328    N        0.74086    0.71227    0.02490    1.000
    Si4329   Si       0.71818    0.70323    0.06324    1.000
    Si4330   Si       0.70684    0.74734    0.11897    1.000
    N4331    N        0.75029    0.69563    0.09428    1.000
    N4332    N        0.69879    0.66551    0.05389    1.000
    Si4333   Si       0.74200    0.55653    0.17531    1.000
    N4334    N        0.74563    0.53640    0.21318    1.000
    Si4335   Si       0.70641    0.53636    0.23148    1.000
    N4336    N        0.70179    0.54779    0.16082    1.000
    Si4337   Si       0.69675    0.51133    0.13176    1.000
    Si4338   Si       0.72723    0.63135    0.18730    1.000
    Si4339   Si       0.75374    0.66322    0.12469    1.000
    N4340    N        0.74001    0.71547    0.21078    1.000
    Si4341   Si       0.69871    0.71328    0.19207    1.000
    N4342    N        0.73723    0.64815    0.22629    1.000
    N4343    N        0.71790    0.73066    0.15583    1.000
    N4344    N        0.74359    0.66490    0.16662    1.000
    N4345    N        0.71998    0.57805    0.30766    1.000
    N4346    N        0.70695    0.52115    0.27219    1.000
    N4347    N        0.72189    0.62481    0.35941    1.000
    N4348    N        0.74930    0.54887    0.36906    1.000
    Si4349   Si       0.69526    0.60034    0.33462    1.000
    Si4350   Si       0.74665    0.65518    0.33910    1.000
    N4351    N        0.72214    0.69202    0.34164    1.000
    N4352    N        0.71787    0.69559    0.27295    1.000
    Si4353   Si       0.72311    0.65275    0.26776    1.000
    Si4354   Si       0.75028    0.71521    0.25370    1.000
    Si4355   Si       0.69783    0.70764    0.30957    1.000
    N4356    N        0.75305    0.64411    0.29667    1.000
    Si4357   Si       0.75472    0.70956    0.36329    1.000
    N4358    N        0.69449    0.75261    0.31882    1.000
    Si4359   Si       0.70800    0.51125    0.44412    1.000
    Si4360   Si       0.70234    0.62669    0.39701    1.000
    Si4361   Si       0.70709    0.54935    0.38162    1.000
    N4362    N        0.70167    0.55010    0.46752    1.000
    N4363    N        0.70463    0.51058    0.40174    1.000
    Si4364   Si       0.72471    0.57772    0.49081    1.000
    N4365    N        0.70051    0.58296    0.40875    1.000
    N4366    N        0.69538    0.61253    0.47891    1.000
    Si4367   Si       0.73290    0.63569    0.46752    1.000
    Si4368   Si       0.69649    0.72938    0.41534    1.000
    N4369    N        0.72846    0.64504    0.42592    1.000
    N4370    N        0.74005    0.72023    0.40155    1.000
    N4371    N        0.73159    0.53021    0.58597    1.000
    Si4372   Si       0.73816    0.56436    0.55606    1.000
    N4373    N        0.74155    0.60871    0.56497    1.000
    N4374    N        0.70741    0.55969    0.52579    1.000
    Si4375   Si       0.71591    0.60966    0.60082    1.000
    N4376    N        0.72416    0.70224    0.56799    1.000
    Si4377   Si       0.72287    0.69631    0.52346    1.000
    Si4378   Si       0.73332    0.72436    0.60711    1.000
    N4379    N        0.70117    0.72953    0.50728    1.000
    N4380    N        0.70208    0.65034    0.60910    1.000
    N4381    N        0.74358    0.66473    0.49939    1.000
    N4382    N        0.69766    0.74808    0.61190    1.000
    N4383    N        0.73863    0.58393    0.62615    1.000
    Si4384   Si       0.72205    0.54392    0.62942    1.000
    N4385    N        0.74734    0.52593    0.65840    1.000
    N4386    N        0.69954    0.52927    0.74067    1.000
    N4387    N        0.74514    0.69448    0.63859    1.000
    N4388    N        0.70850    0.74481    0.72055    1.000
    N4389    N        0.70655    0.63828    0.67521    1.000
    Si4390   Si       0.70943    0.67121    0.64604    1.000
    N4391    N        0.72178    0.57129    0.78189    1.000
    Si4392   Si       0.72023    0.60307    0.81196    1.000
    Si4393   Si       0.72523    0.52338    0.77593    1.000
    N4394    N        0.70052    0.51202    0.80896    1.000
    N4395    N        0.75023    0.60985    0.84229    1.000
    Si4396   Si       0.72311    0.58992    0.87218    1.000
    N4397    N        0.71740    0.63910    0.78918    1.000
    Si4398   Si       0.73483    0.73951    0.75743    1.000
    Si4399   Si       0.72467    0.66552    0.75541    1.000
    N4400    N        0.71867    0.70479    0.77599    1.000
    Si4401   Si       0.71156    0.70795    0.86143    1.000
    N4402    N        0.74790    0.69218    0.84426    1.000
    N4403    N        0.74324    0.55270    0.97246    1.000
    N4404    N        0.74217    0.61682    0.94770    1.000
    N4405    N        0.73885    0.56569    0.90198    1.000
    Si4406   Si       0.72582    0.57832    0.94067    1.000
    N4407    N        0.70557    0.62344    0.89437    1.000
    N4408    N        0.72716    0.74652    0.95921    1.000
    N4409    N        0.74669    0.68953    0.94803    1.000
    Si4410   Si       0.71730    0.71795    0.92528    1.000
    Si4411   Si       0.72580    0.71003    0.98574    1.000
    N4412    N        0.72087    0.74449    0.88918    1.000
    Si4413   Si       0.73430    0.64854    0.91950    1.000
    N4414    N        0.70553    0.68372    0.89851    1.000
    N4415    N        0.71723    0.81749    0.06354    1.000
    Si4416   Si       0.71625    0.85902    0.04611    1.000
    N4417    N        0.74116    0.84791    0.01146    1.000
    N4418    N        0.73686    0.77831    0.11424    1.000
    Si4419   Si       0.74476    0.80301    0.00811    1.000
    Si4420   Si       0.75097    0.79579    0.07729    1.000
    N4421    N        0.72553    0.95447    0.03155    1.000
    Si4422   Si       0.72017    0.90275    0.10343    1.000
    N4423    N        0.73545    0.89545    0.06129    1.000
    Si4424   Si       0.72901    0.00017    0.03527    1.000
    N4425    N        0.71662    0.94464    0.11462    1.000
    N4426    N        0.69964    0.89835    0.00164    1.000
    Si4427   Si       0.75489    0.92310    0.03379    1.000
    Si4428   Si       0.71334    0.79779    0.14511    1.000
    Si4429   Si       0.73082    0.86374    0.16731    1.000
    N4430    N        0.71830    0.79392    0.18813    1.000
    N4431    N        0.71219    0.87464    0.20351    1.000
    N4432    N        0.70375    0.83927    0.14350    1.000
    N4433    N        0.75148    0.97666    0.17189    1.000
    N4434    N        0.74706    0.88839    0.13542    1.000
    N4435    N        0.72034    0.99496    0.22858    1.000
    Si4436   Si       0.75186    0.96613    0.12954    1.000
    Si4437   Si       0.72549    0.95933    0.20251    1.000
    N4438    N        0.74087    0.93119    0.23390    1.000
    Si4439   Si       0.74579    0.88588    0.23052    1.000
    N4440    N        0.72507    0.86466    0.33486    1.000
    N4441    N        0.73658    0.80498    0.30860    1.000
    N4442    N        0.73306    0.86207    0.26635    1.000
    Si4443   Si       0.73221    0.81894    0.26734    1.000
    Si4444   Si       0.70873    0.82659    0.33243    1.000
    Si4445   Si       0.73810    0.76214    0.31256    1.000
    N4446    N        0.69964    0.79295    0.25284    1.000
    N4447    N        0.69745    0.80868    0.36860    1.000
    Si4448   Si       0.70582    0.96702    0.33323    1.000
    N4449    N        0.71062    0.96795    0.29035    1.000
    N4450    N        0.74178    0.97062    0.35644    1.000
    Si4451   Si       0.71345    0.89397    0.36437    1.000
    Si4452   Si       0.74794    0.95072    0.27258    1.000
    N4453    N        0.73192    0.79764    0.48860    1.000
    Si4454   Si       0.70178    0.83295    0.40357    1.000
    N4455    N        0.74481    0.84183    0.41576    1.000
    N4456    N        0.71264    0.76281    0.43782    1.000
    Si4457   Si       0.69427    0.79251    0.46217    1.000
    N4458    N        0.71788    0.96176    0.42983    1.000
    N4459    N        0.74862    0.91076    0.38146    1.000
    N4460    N        0.71484    0.00850    0.48401    1.000
    Si4461   Si       0.71258    0.00431    0.44025    1.000
    N4462    N        0.71315    0.86768    0.58817    1.000
    Si4463   Si       0.72901    0.82782    0.57269    1.000
    N4464    N        0.74007    0.81245    0.61056    1.000
    Si4465   Si       0.71048    0.77068    0.52114    1.000
    Si4466   Si       0.73702    0.83851    0.50101    1.000
    N4467    N        0.69984    0.80037    0.55511    1.000
    N4468    N        0.69493    0.85213    0.50677    1.000
    Si4469   Si       0.69975    0.00019    0.61321    1.000
    N4470    N        0.72550    0.92064    0.50914    1.000
    Si4471   Si       0.71501    0.94834    0.54143    1.000
    N4472    N        0.73485    0.93514    0.57749    1.000
    Si4473   Si       0.74619    0.89858    0.59670    1.000
    N4474    N        0.74797    0.97692    0.53636    1.000
    Si4475   Si       0.72328    0.88410    0.74344    1.000
    N4476    N        0.73350    0.79810    0.67479    1.000
    Si4477   Si       0.71484    0.82143    0.64284    1.000
    N4478    N        0.71287    0.86180    0.65999    1.000
    N4479    N        0.70844    0.81034    0.73421    1.000
    Si4480   Si       0.69967    0.78578    0.70109    1.000
    Si4481   Si       0.74747    0.88432    0.67280    1.000
    N4482    N        0.74104    0.98381    0.61923    1.000
    N4483    N        0.75287    0.91288    0.63749    1.000
    Si4484   Si       0.74268    0.95023    0.71877    1.000
    N4485    N        0.73850    0.90585    0.71025    1.000
    N4486    N        0.75005    0.96744    0.67838    1.000
    Si4487   Si       0.73092    0.94719    0.64498    1.000
    N4488    N        0.72286    0.87352    0.84600    1.000
    Si4489   Si       0.73502    0.82871    0.85245    1.000
    N4490    N        0.74608    0.77696    0.77783    1.000
    N4491    N        0.75002    0.85402    0.76233    1.000
    Si4492   Si       0.74894    0.81049    0.74933    1.000
    Si4493   Si       0.70166    0.87771    0.80538    1.000
    N4494    N        0.70061    0.80334    0.85636    1.000
    Si4495   Si       0.70850    0.95493    0.78242    1.000
    N4496    N        0.71673    0.91180    0.78140    1.000
    N4497    N        0.74473    0.97335    0.80134    1.000
    N4498    N        0.71178    0.96985    0.74150    1.000
    N4499    N        0.72553    0.98933    0.87007    1.000
    N4500    N        0.73552    0.86433    0.94036    1.000
    Si4501   Si       0.69810    0.84323    0.93106    1.000
    Si4502   Si       0.73462    0.88103    0.98303    1.000
    N4503    N        0.75610    0.81843    0.88944    1.000
    N4504    N        0.70245    0.79491    0.99800    1.000
    Si4505   Si       0.73682    0.98070    0.91444    1.000
    N4506    N        0.69537    0.97823    0.92430    1.000
    Si4507   Si       0.77273    0.03055    0.08217    1.000
    Si4508   Si       0.76550    0.10110    0.04540    1.000
    N4509    N        0.80671    0.09757    0.03395    1.000
    N4510    N        0.75915    0.07430    0.07995    1.000
    Si4511   Si       0.77428    0.14332    0.09807    1.000
    N4512    N        0.78822    0.20747    0.03623    1.000
    Si4513   Si       0.77865    0.16764    0.02145    1.000
    N4514    N        0.76913    0.18741    0.10765    1.000
    N4515    N        0.75927    0.14397    0.05636    1.000
    N4516    N        0.81277    0.24472    0.09139    1.000
    Si4517   Si       0.79605    0.09724    0.18056    1.000
    N4518    N        0.78853    0.06437    0.14837    1.000
    N4519    N        0.78294    0.02459    0.20515    1.000
    Si4520   Si       0.77311    0.01603    0.16272    1.000
    Si4521   Si       0.75741    0.01423    0.23744    1.000
    N4522    N        0.75457    0.10574    0.19193    1.000
    Si4523   Si       0.75516    0.08016    0.12420    1.000
    Si4524   Si       0.81007    0.16437    0.20967    1.000
    N4525    N        0.77212    0.23594    0.14498    1.000
    N4526    N        0.80956    0.13905    0.17362    1.000
    Si4527   Si       0.80199    0.21474    0.12002    1.000
    N4528    N        0.77238    0.16929    0.23026    1.000
    Si4529   Si       0.80010    0.24265    0.21018    1.000
    N4530    N        0.75662    0.23227    0.21175    1.000
    N4531    N        0.79475    0.06064    0.30917    1.000
    Si4532   Si       0.78941    0.05545    0.35094    1.000
    N4533    N        0.77208    0.11043    0.26364    1.000
    Si4534   Si       0.76042    0.07772    0.28999    1.000
    N4535    N        0.81093    0.08861    0.36857    1.000
    N4536    N        0.77246    0.18085    0.30231    1.000
    Si4537   Si       0.76444    0.15283    0.26995    1.000
    N4538    N        0.80463    0.26090    0.25087    1.000
    N4539    N        0.80251    0.02318    0.37658    1.000
    N4540    N        0.78670    0.05505    0.44739    1.000
    Si4541   Si       0.76420    0.12792    0.41016    1.000
    N4542    N        0.79070    0.12489    0.44235    1.000
    Si4543   Si       0.80786    0.08969    0.46200    1.000
    Si4544   Si       0.79192    0.01003    0.43544    1.000
    N4545    N        0.77885    0.21833    0.49289    1.000
    N4546    N        0.77614    0.25464    0.43278    1.000
    N4547    N        0.78507    0.15217    0.37884    1.000
    Si4548   Si       0.79978    0.22707    0.45652    1.000
    N4549    N        0.80799    0.19378    0.42661    1.000
    Si4550   Si       0.79014    0.19496    0.38610    1.000
    Si4551   Si       0.77940    0.05392    0.55365    1.000
    N4552    N        0.78634    0.01527    0.57603    1.000
    N4553    N        0.80717    0.10673    0.50266    1.000
    N4554    N        0.76003    0.04143    0.51717    1.000
    N4555    N        0.79049    0.13207    0.60393    1.000
    N4556    N        0.79393    0.23720    0.55634    1.000
    N4557    N        0.79852    0.16932    0.53723    1.000
    Si4558   Si       0.77186    0.20620    0.53449    1.000
    N4559    N        0.79696    0.21880    0.61891    1.000
    Si4560   Si       0.77299    0.25889    0.58997    1.000
    Si4561   Si       0.79497    0.14926    0.49741    1.000
    N4562    N        0.81140    0.04600    0.70979    1.000
    N4563    N        0.79187    0.09835    0.67081    1.000
    N4564    N        0.79096    0.12448    0.73238    1.000
    Si4565   Si       0.81363    0.12017    0.63950    1.000
    Si4566   Si       0.78303    0.18803    0.70872    1.000
    Si4567   Si       0.76251    0.21831    0.64320    1.000
    N4568    N        0.77552    0.22301    0.68445    1.000
    N4569    N        0.76759    0.19752    0.74812    1.000
    Si4570   Si       0.78258    0.08547    0.82879    1.000
    N4571    N        0.78729    0.11852    0.80058    1.000
    N4572    N        0.76746    0.11552    0.85859    1.000
    N4573    N        0.80349    0.01797    0.78100    1.000
    N4574    N        0.77878    0.00960    0.85284    1.000
    N4575    N        0.77684    0.18628    0.81822    1.000
    Si4576   Si       0.78711    0.20942    0.78426    1.000
    Si4577   Si       0.76496    0.14443    0.82681    1.000
    N4578    N        0.77751    0.25175    0.79145    1.000
    N4579    N        0.75723    0.01526    0.93146    1.000
    N4580    N        0.80634    0.03914    0.97734    1.000
    N4581    N        0.78004    0.07961    0.92066    1.000
    Si4582   Si       0.77065    0.11832    0.90127    1.000
    Si4583   Si       0.77274    0.01164    0.97228    1.000
    Si4584   Si       0.77328    0.25293    0.87985    1.000
    N4585    N        0.76576    0.21103    0.87384    1.000
    Si4586   Si       0.79443    0.19247    0.90220    1.000
    N4587    N        0.77032    0.19810    0.93674    1.000
    N4588    N        0.80232    0.14903    0.90485    1.000
    Si4589   Si       0.77592    0.23738    0.95591    1.000
    N4590    N        0.78313    0.34314    0.02034    1.000
    Si4591   Si       0.77573    0.36399    0.05744    1.000
    N4592    N        0.78206    0.37628    0.10310    1.000
    Si4593   Si       0.78761    0.27865    0.08430    1.000
    Si4594   Si       0.77029    0.33338    0.11379    1.000
    N4595    N        0.80611    0.31676    0.08759    1.000
    N4596    N        0.76282    0.27012    0.05027    1.000
    Si4597   Si       0.77613    0.48902    0.01435    1.000
    N4598    N        0.79782    0.47004    0.04646    1.000
    N4599    N        0.76541    0.40460    0.04137    1.000
    Si4600   Si       0.80349    0.42750    0.04039    1.000
    N4601    N        0.79800    0.47801    0.11800    1.000
    Si4602   Si       0.77225    0.28040    0.15642    1.000
    N4603    N        0.79314    0.33132    0.23008    1.000
    N4604    N        0.78482    0.32553    0.15485    1.000
    N4605    N        0.80855    0.27293    0.18124    1.000
    Si4606   Si       0.80361    0.37582    0.24062    1.000
    Si4607   Si       0.80887    0.33382    0.18895    1.000
    N4608    N        0.76220    0.40365    0.16608    1.000
    Si4609   Si       0.80383    0.41308    0.17421    1.000
    Si4610   Si       0.76629    0.50346    0.13392    1.000
    N4611    N        0.80889    0.44343    0.20589    1.000
    N4612    N        0.76658    0.40269    0.23380    1.000
    N4613    N        0.76473    0.48009    0.24638    1.000
    Si4614   Si       0.78469    0.44177    0.24293    1.000
    Si4615   Si       0.77122    0.49877    0.20613    1.000
    N4616    N        0.77807    0.31123    0.29519    1.000
    N4617    N        0.79393    0.37388    0.28770    1.000
    Si4618   Si       0.77875    0.29582    0.25265    1.000
    Si4619   Si       0.75925    0.35088    0.29746    1.000
    N4620    N        0.80706    0.32812    0.35757    1.000
    Si4621   Si       0.80004    0.41150    0.30993    1.000
    N4622    N        0.76567    0.41422    0.33700    1.000
    N4623    N        0.79818    0.47631    0.35250    1.000
    Si4624   Si       0.75968    0.45675    0.34633    1.000
    N4625    N        0.81005    0.44017    0.27902    1.000
    N4626    N        0.75951    0.28582    0.37639    1.000
    N4627    N        0.78642    0.31134    0.48841    1.000
    Si4628   Si       0.79700    0.35517    0.39061    1.000
    Si4629   Si       0.80162    0.29231    0.38442    1.000
    Si4630   Si       0.77702    0.29253    0.45130    1.000
    N4631    N        0.80183    0.31653    0.42226    1.000
    N4632    N        0.76325    0.37812    0.40403    1.000
    N4633    N        0.80875    0.43492    0.40904    1.000
    N4634    N        0.75834    0.42368    0.45194    1.000
    Si4635   Si       0.76590    0.42305    0.40934    1.000
    N4636    N        0.80756    0.47748    0.48045    1.000
    Si4637   Si       0.78988    0.43872    0.47970    1.000
    Si4638   Si       0.78305    0.50732    0.46026    1.000
    Si4639   Si       0.78400    0.36822    0.53918    1.000
    Si4640   Si       0.78975    0.32785    0.60389    1.000
    N4641    N        0.76887    0.33917    0.56698    1.000
    N4642    N        0.80471    0.28854    0.59807    1.000
    N4643    N        0.75925    0.37348    0.50153    1.000
    N4644    N        0.81150    0.36220    0.61849    1.000
    N4645    N        0.75821    0.44521    0.51168    1.000
    Si4646   Si       0.78664    0.39585    0.60753    1.000
    N4647    N        0.77828    0.40359    0.56488    1.000
    Si4648   Si       0.78210    0.44551    0.54969    1.000
    N4649    N        0.76163    0.47207    0.57570    1.000
    Si4650   Si       0.77857    0.46687    0.61577    1.000
    N4651    N        0.80989    0.43244    0.61309    1.000
    Si4652   Si       0.77387    0.32116    0.67543    1.000
    N4653    N        0.76836    0.35745    0.69652    1.000
    N4654    N        0.80408    0.26994    0.72755    1.000
    N4655    N        0.75754    0.32470    0.63471    1.000
    Si4656   Si       0.79988    0.37929    0.71552    1.000
    Si4657   Si       0.76478    0.25492    0.71283    1.000
    N4658    N        0.75583    0.48007    0.71314    1.000
    N4659    N        0.78513    0.42088    0.72165    1.000
    Si4660   Si       0.78615    0.50467    0.72932    1.000
    N4661    N        0.80323    0.49798    0.63243    1.000
    N4662    N        0.77425    0.32591    0.83438    1.000
    Si4663   Si       0.77397    0.36817    0.85026    1.000
    N4664    N        0.80978    0.36468    0.75554    1.000
    N4665    N        0.80930    0.27090    0.86366    1.000
    N4666    N        0.81132    0.38530    0.84124    1.000
    N4667    N        0.79299    0.42322    0.78720    1.000
    Si4668   Si       0.76569    0.47048    0.86090    1.000
    N4669    N        0.80613    0.45212    0.86386    1.000
    Si4670   Si       0.81222    0.43958    0.75273    1.000
    Si4671   Si       0.78639    0.30611    0.93821    1.000
    N4672    N        0.77685    0.26756    0.92338    1.000
    N4673    N        0.80716    0.33343    0.91274    1.000
    N4674    N        0.80915    0.29711    0.97379    1.000
    Si4675   Si       0.81106    0.37486    0.93035    1.000
    N4676    N        0.75627    0.33465    0.95449    1.000
    Si4677   Si       0.78881    0.43114    0.90539    1.000
    N4678    N        0.80529    0.45668    0.93637    1.000
    N4679    N        0.78030    0.50691    0.87757    1.000
    Si4680   Si       0.78660    0.43283    0.96848    1.000
    N4681    N        0.75890    0.46160    0.98468    1.000
    N4682    N        0.77542    0.39853    0.94211    1.000
    N4683    N        0.79452    0.53170    0.07920    1.000
    Si4684   Si       0.76337    0.60860    0.08156    1.000
    N4685    N        0.80134    0.59860    0.10175    1.000
    N4686    N        0.78041    0.64310    0.05728    1.000
    Si4687   Si       0.78061    0.73572    0.02464    1.000
    Si4688   Si       0.79202    0.68351    0.08146    1.000
    N4689    N        0.80435    0.70210    0.04118    1.000
    Si4690   Si       0.80798    0.65833    0.02837    1.000
    N4691    N        0.79776    0.66200    0.12149    1.000
    N4692    N        0.77410    0.54218    0.15229    1.000
    Si4693   Si       0.78887    0.60298    0.20902    1.000
    N4694    N        0.75497    0.59794    0.18417    1.000
    N4695    N        0.81314    0.50797    0.19588    1.000
    N4696    N        0.78720    0.69372    0.24817    1.000
    Si4697   Si       0.75711    0.73491    0.17142    1.000
    Si4698   Si       0.76856    0.67681    0.20229    1.000
    N4699    N        0.79475    0.71167    0.17320    1.000
    N4700    N        0.79914    0.64665    0.20899    1.000
    N4701    N        0.78607    0.59291    0.32404    1.000
    N4702    N        0.77072    0.52520    0.30454    1.000
    Si4703   Si       0.78487    0.61620    0.28792    1.000
    N4704    N        0.78259    0.59423    0.25106    1.000
    Si4705   Si       0.75670    0.56098    0.32740    1.000
    Si4706   Si       0.80560    0.50934    0.32655    1.000
    N4707    N        0.76426    0.74720    0.34307    1.000
    N4708    N        0.77777    0.67361    0.36465    1.000
    N4709    N        0.75976    0.75180    0.27536    1.000
    Si4710   Si       0.78864    0.54280    0.39026    1.000
    N4711    N        0.80110    0.57682    0.41237    1.000
    N4712    N        0.79883    0.54394    0.47812    1.000
    Si4713   Si       0.79508    0.58345    0.45739    1.000
    N4714    N        0.75856    0.59909    0.47384    1.000
    N4715    N        0.79558    0.50730    0.41675    1.000
    N4716    N        0.81055    0.71424    0.41759    1.000
    Si4717   Si       0.81278    0.67617    0.39039    1.000
    Si4718   Si       0.75300    0.75084    0.42919    1.000
    N4719    N        0.77407    0.74297    0.46692    1.000
    Si4720   Si       0.80477    0.71332    0.46066    1.000
    N4721    N        0.81142    0.67104    0.47281    1.000
    N4722    N        0.77800    0.56279    0.54165    1.000
    Si4723   Si       0.78357    0.60602    0.55725    1.000
    N4724    N        0.80196    0.59965    0.59752    1.000
    Si4725   Si       0.81471    0.54865    0.51803    1.000
    N4726    N        0.80339    0.63720    0.53613    1.000
    N4727    N        0.79092    0.70529    0.52758    1.000
    Si4728   Si       0.78611    0.66580    0.50839    1.000
    Si4729   Si       0.77943    0.73679    0.55817    1.000
    N4730    N        0.76851    0.74811    0.59758    1.000
    Si4731   Si       0.77966    0.59895    0.63468    1.000
    Si4732   Si       0.79225    0.52860    0.66138    1.000
    N4733    N        0.80361    0.57020    0.65770    1.000
    Si4734   Si       0.77445    0.62787    0.70428    1.000
    N4735    N        0.75613    0.59323    0.72236    1.000
    N4736    N        0.81172    0.69253    0.62089    1.000
    N4737    N        0.77549    0.72643    0.74503    1.000
    N4738    N        0.77664    0.63575    0.65984    1.000
    Si4739   Si       0.78559    0.68029    0.65202    1.000
    Si4740   Si       0.78927    0.68980    0.73291    1.000
    N4741    N        0.75707    0.65936    0.72867    1.000
    N4742    N        0.80219    0.69236    0.69049    1.000
    N4743    N        0.79042    0.58943    0.78955    1.000
    Si4744   Si       0.79467    0.60238    0.83439    1.000
    N4745    N        0.76610    0.52988    0.75995    1.000
    Si4746   Si       0.76163    0.57391    0.75985    1.000
    N4747    N        0.80201    0.57580    0.87162    1.000
    Si4748   Si       0.78207    0.71730    0.84263    1.000
    N4749    N        0.79937    0.64730    0.82900    1.000
    Si4750   Si       0.76212    0.65207    0.85136    1.000
    N4751    N        0.81080    0.71417    0.80913    1.000
    N4752    N        0.77000    0.75742    0.84555    1.000
    Si4753   Si       0.77677    0.54686    0.89459    1.000
    Si4754   Si       0.78622    0.55459    0.97098    1.000
    N4755    N        0.80230    0.55326    0.93060    1.000
    N4756    N        0.79231    0.59183    0.99299    1.000
    Si4757   Si       0.76098    0.62092    0.98840    1.000
    N4758    N        0.80124    0.51642    0.99105    1.000
    N4759    N        0.78167    0.65859    0.99339    1.000
    Si4760   Si       0.78684    0.68976    0.96339    1.000
    N4761    N        0.77134    0.65234    0.89436    1.000
    N4762    N        0.81014    0.70737    0.87650    1.000
    N4763    N        0.79123    0.73032    0.98019    1.000
    Si4764   Si       0.80971    0.67067    0.89989    1.000
    N4765    N        0.78775    0.75817    0.91059    1.000
    Si4766   Si       0.76870    0.75715    0.95244    1.000
    N4767    N        0.78685    0.81975    0.07366    1.000
    N4768    N        0.75843    0.77565    0.03830    1.000
    N4769    N        0.81067    0.88125    0.09543    1.000
    N4770    N        0.79358    0.93951    0.04954    1.000
    Si4771   Si       0.79713    0.97745    0.02957    1.000
    N4772    N        0.76914    0.00292    0.04997    1.000
    N4773    N        0.76561    0.84099    0.18325    1.000
    N4774    N        0.77911    0.77028    0.18287    1.000
    Si4775   Si       0.80107    0.86113    0.19448    1.000
    N4776    N        0.76873    0.80683    0.24260    1.000
    N4777    N        0.78981    0.88091    0.23177    1.000
    Si4778   Si       0.75904    0.80230    0.20075    1.000
    Si4779   Si       0.78947    0.90032    0.12896    1.000
    N4780    N        0.78793    0.94347    0.12500    1.000
    N4781    N        0.81169    0.00313    0.14339    1.000
    N4782    N        0.81007    0.89328    0.16622    1.000
    N4783    N        0.79355    0.85796    0.30008    1.000
    Si4784   Si       0.79307    0.77951    0.26513    1.000
    N4785    N        0.79471    0.82685    0.36361    1.000
    N4786    N        0.81048    0.79118    0.30300    1.000
    Si4787   Si       0.80438    0.75776    0.32851    1.000
    Si4788   Si       0.75379    0.87693    0.30388    1.000
    N4789    N        0.77534    0.98475    0.26573    1.000
    Si4790   Si       0.76562    0.93497    0.34602    1.000
    N4791    N        0.80869    0.93598    0.34999    1.000
    N4792    N        0.75747    0.92051    0.30507    1.000
    Si4793   Si       0.76498    0.87315    0.43758    1.000
    Si4794   Si       0.78042    0.82074    0.40284    1.000
    N4795    N        0.78183    0.77772    0.40934    1.000
    N4796    N        0.80369    0.85165    0.42848    1.000
    N4797    N        0.75682    0.86861    0.48000    1.000
    Si4798   Si       0.76854    0.77405    0.49599    1.000
    N4799    N        0.76486    0.91687    0.44532    1.000
    Si4800   Si       0.75325    0.94270    0.41292    1.000
    Si4801   Si       0.76232    0.00292    0.37858    1.000
    Si4802   Si       0.76288    0.91114    0.48798    1.000
    N4803    N        0.78608    0.97126    0.40687    1.000
    N4804    N        0.78654    0.98902    0.47405    1.000
    Si4805   Si       0.79295    0.85024    0.55819    1.000
    N4806    N        0.80065    0.81368    0.57923    1.000
    Si4807   Si       0.77607    0.78998    0.60871    1.000
    N4808    N        0.75521    0.83755    0.54078    1.000
    N4809    N        0.75233    0.75998    0.53466    1.000
    N4810    N        0.80231    0.79827    0.49599    1.000
    N4811    N        0.78460    0.88727    0.57969    1.000
    Si4812   Si       0.76465    0.97465    0.58030    1.000
    N4813    N        0.80185    0.95680    0.59198    1.000
    N4814    N        0.79996    0.92624    0.50412    1.000
    Si4815   Si       0.75557    0.00099    0.50244    1.000
    Si4816   Si       0.77561    0.80961    0.68301    1.000
    N4817    N        0.79789    0.79462    0.64833    1.000
    N4818    N        0.78250    0.79600    0.72358    1.000
    N4819    N        0.78045    0.85417    0.67731    1.000
    N4820    N        0.80354    0.00247    0.64972    1.000
    Si4821   Si       0.76054    0.00370    0.65354    1.000
    N4822    N        0.77979    0.95594    0.74147    1.000
    Si4823   Si       0.77734    0.85460    0.79395    1.000
    Si4824   Si       0.77455    0.78349    0.81076    1.000
    N4825    N        0.76525    0.82364    0.82289    1.000
    N4826    N        0.81067    0.77983    0.78778    1.000
    Si4827   Si       0.80090    0.76331    0.74588    1.000
    N4828    N        0.78333    0.89184    0.81414    1.000
    Si4829   Si       0.78120    0.97872    0.77914    1.000
    Si4830   Si       0.76065    0.89463    0.85171    1.000
    N4831    N        0.76019    0.93505    0.86442    1.000
    N4832    N        0.80628    0.96010    0.81194    1.000
    Si4833   Si       0.75944    0.97167    0.84322    1.000
    Si4834   Si       0.75888    0.77359    0.88346    1.000
    N4835    N        0.80213    0.84534    0.94026    1.000
    N4836    N        0.77256    0.79351    0.97686    1.000
    Si4837   Si       0.76812    0.85107    0.91547    1.000
    N4838    N        0.78008    0.88384    0.88955    1.000
    Si4839   Si       0.80934    0.81658    0.97228    1.000
    Si4840   Si       0.78594    0.93640    0.96470    1.000
    N4841    N        0.76408    0.91060    0.99343    1.000
    N4842    N        0.78911    0.97491    0.98651    1.000
    N4843    N        0.76224    0.94772    0.92931    1.000
    Si4844   Si       0.78817    0.92660    0.89949    1.000
    Si4845   Si       0.83092    0.11893    0.00386    1.000
    Si4846   Si       0.83335    0.07208    0.05906    1.000
    N4847    N        0.85712    0.06028    0.02319    1.000
    Si4848   Si       0.84176    0.02862    0.00019    1.000
    N4849    N        0.86756    0.08977    0.07747    1.000
    N4850    N        0.81382    0.04192    0.08464    1.000
    N4851    N        0.81573    0.13912    0.10071    1.000
    Si4852   Si       0.82430    0.22409    0.05527    1.000
    N4853    N        0.86031    0.19757    0.06657    1.000
    N4854    N        0.81430    0.15892    0.00213    1.000
    N4855    N        0.83779    0.25710    0.03052    1.000
    N4856    N        0.82578    0.08275    0.21380    1.000
    Si4857   Si       0.85204    0.10760    0.23855    1.000
    Si4858   Si       0.82173    0.04174    0.12719    1.000
    Si4859   Si       0.82188    0.04088    0.21581    1.000
    N4860    N        0.85955    0.05745    0.13703    1.000
    N4861    N        0.85344    0.02056    0.19474    1.000
    N4862    N        0.84101    0.15130    0.23587    1.000
    Si4863   Si       0.83314    0.15004    0.13796    1.000
    N4864    N        0.83894    0.19238    0.12929    1.000
    Si4865   Si       0.86627    0.20810    0.19835    1.000
    N4866    N        0.82442    0.20701    0.20242    1.000
    N4867    N        0.85004    0.09689    0.28136    1.000
    Si4868   Si       0.83447    0.05750    0.29241    1.000
    N4869    N        0.82578    0.03038    0.25899    1.000
    N4870    N        0.86248    0.03819    0.32337    1.000
    Si4871   Si       0.86405    0.12520    0.31213    1.000
    Si4872   Si       0.82305    0.13016    0.36873    1.000
    N4873    N        0.83059    0.14669    0.32908    1.000
    Si4874   Si       0.83922    0.24383    0.35125    1.000
    N4875    N        0.83539    0.20375    0.28735    1.000
    Si4876   Si       0.83151    0.24879    0.28093    1.000
    Si4877   Si       0.86188    0.17652    0.26425    1.000
    Si4878   Si       0.81218    0.18524    0.31745    1.000
    N4879    N        0.81410    0.20952    0.35259    1.000
    N4880    N        0.84984    0.08378    0.44990    1.000
    Si4881   Si       0.84521    0.02485    0.38581    1.000
    Si4882   Si       0.86626    0.09707    0.41063    1.000
    N4883    N        0.86950    0.05891    0.38819    1.000
    N4884    N        0.83681    0.01197    0.42797    1.000
    N4885    N        0.83656    0.25348    0.46259    1.000
    N4886    N        0.84782    0.13594    0.40318    1.000
    N4887    N        0.83549    0.16273    0.47845    1.000
    Si4888   Si       0.82270    0.15370    0.43595    1.000
    Si4889   Si       0.86738    0.18482    0.49779    1.000
    N4890    N        0.84275    0.11831    0.56266    1.000
    Si4891   Si       0.83915    0.09396    0.52801    1.000
    Si4892   Si       0.82658    0.01517    0.55876    1.000
    N4893    N        0.82254    0.05641    0.54265    1.000
    N4894    N        0.85053    0.01362    0.59390    1.000
    Si4895   Si       0.87162    0.10783    0.59293    1.000
    Si4896   Si       0.85849    0.25861    0.49961    1.000
    N4897    N        0.84501    0.18437    0.58126    1.000
    N4898    N        0.85132    0.21972    0.51805    1.000
    Si4899   Si       0.83320    0.21851    0.55757    1.000
    N4900    N        0.85801    0.24935    0.57641    1.000
    Si4901   Si       0.81621    0.15130    0.57272    1.000
    Si4902   Si       0.82862    0.01486    0.68495    1.000
    Si4903   Si       0.86878    0.07588    0.65862    1.000
    Si4904   Si       0.81483    0.09096    0.70908    1.000
    N4905    N        0.84734    0.09607    0.62565    1.000
    N4906    N        0.86114    0.03259    0.66251    1.000
    N4907    N        0.85670    0.09843    0.69504    1.000
    N4908    N        0.82659    0.18290    0.71416    1.000
    N4909    N        0.85974    0.21631    0.65279    1.000
    Si4910   Si       0.83412    0.19853    0.62414    1.000
    Si4911   Si       0.85109    0.17945    0.68004    1.000
    N4912    N        0.83023    0.16079    0.64721    1.000
    Si4913   Si       0.85887    0.07865    0.83850    1.000
    N4914    N        0.83007    0.08333    0.75670    1.000
    Si4915   Si       0.82806    0.04116    0.75162    1.000
    N4916    N        0.86869    0.12127    0.83583    1.000
    N4917    N        0.81941    0.06360    0.83630    1.000
    Si4918   Si       0.81214    0.01997    0.82661    1.000
    Si4919   Si       0.81509    0.12175    0.76851    1.000
    N4920    N        0.86658    0.02245    0.74604    1.000
    N4921    N        0.84361    0.15299    0.77566    1.000
    N4922    N        0.82895    0.22356    0.77208    1.000
    Si4923   Si       0.84899    0.19083    0.75410    1.000
    N4924    N        0.84652    0.04936    0.92521    1.000
    N4925    N        0.82781    0.10449    0.96301    1.000
    N4926    N        0.85978    0.11213    0.90457    1.000
    Si4927   Si       0.81312    0.06888    0.94458    1.000
    Si4928   Si       0.83523    0.13341    0.93162    1.000
    N4929    N        0.84975    0.17281    0.94408    1.000
    N4930    N        0.81477    0.22795    0.97204    1.000
    Si4931   Si       0.86693    0.19620    0.91337    1.000
    Si4932   Si       0.83645    0.19035    0.98200    1.000
    Si4933   Si       0.84614    0.25665    0.88035    1.000
    N4934    N        0.83090    0.21679    0.89726    1.000
    N4935    N        0.85702    0.31963    0.01297    1.000
    Si4936   Si       0.84629    0.31899    0.10916    1.000
    N4937    N        0.85534    0.36304    0.11444    1.000
    Si4938   Si       0.87084    0.28511    0.03819    1.000
    N4939    N        0.87257    0.29749    0.07864    1.000
    Si4940   Si       0.81430    0.49253    0.08056    1.000
    Si4941   Si       0.82185    0.38965    0.10530    1.000
    N4942    N        0.85360    0.47281    0.09186    1.000
    N4943    N        0.83429    0.40664    0.06354    1.000
    N4944    N        0.81589    0.42478    0.99789    1.000
    N4945    N        0.86506    0.29343    0.13918    1.000
    Si4946   Si       0.85198    0.28045    0.17861    1.000
    N4947    N        0.85193    0.31995    0.19762    1.000
    N4948    N        0.81871    0.37657    0.19281    1.000
    N4949    N        0.85958    0.47320    0.23870    1.000
    Si4950   Si       0.83858    0.47545    0.20134    1.000
    Si4951   Si       0.83559    0.45909    0.12918    1.000
    N4952    N        0.85980    0.46679    0.16366    1.000
    N4953    N        0.82218    0.41951    0.13587    1.000
    N4954    N        0.85040    0.32648    0.30422    1.000
    Si4955   Si       0.84816    0.36886    0.29284    1.000
    N4956    N        0.82096    0.26532    0.31914    1.000
    N4957    N        0.84657    0.37202    0.24966    1.000
    Si4958   Si       0.81366    0.30854    0.31968    1.000
    N4959    N        0.83859    0.39961    0.32492    1.000
    Si4960   Si       0.84768    0.46435    0.27913    1.000
    N4961    N        0.83829    0.50033    0.30219    1.000
    N4962    N        0.84613    0.34500    0.47542    1.000
    N4963    N        0.83284    0.37046    0.41214    1.000
    Si4964   Si       0.84043    0.33340    0.43477    1.000
    Si4965   Si       0.85796    0.26667    0.42709    1.000
    N4966    N        0.83223    0.26231    0.39092    1.000
    N4967    N        0.86192    0.47599    0.39024    1.000
    Si4968   Si       0.83488    0.40807    0.42962    1.000
    N4969    N        0.82332    0.40992    0.47224    1.000
    Si4970   Si       0.81885    0.47559    0.39507    1.000
    Si4971   Si       0.83950    0.28660    0.57051    1.000
    N4972    N        0.84149    0.28969    0.52618    1.000
    N4973    N        0.82556    0.35931    0.53264    1.000
    N4974    N        0.86030    0.32107    0.58453    1.000
    Si4975   Si       0.86222    0.35808    0.55944    1.000
    Si4976   Si       0.82265    0.32184    0.50667    1.000
    Si4977   Si       0.84350    0.38191    0.49806    1.000
    N4978    N        0.86883    0.40107    0.57287    1.000
    N4979    N        0.86368    0.46785    0.60362    1.000
    Si4980   Si       0.84193    0.43795    0.58164    1.000
    Si4981   Si       0.84024    0.47896    0.51120    1.000
    N4982    N        0.82421    0.45248    0.54368    1.000
    N4983    N        0.81595    0.31939    0.67254    1.000
    Si4984   Si       0.83339    0.29317    0.70342    1.000
    Si4985   Si       0.83237    0.35717    0.65573    1.000
    N4986    N        0.85625    0.31405    0.73597    1.000
    N4987    N        0.83360    0.38555    0.68869    1.000
    N4988    N        0.84944    0.45402    0.67624    1.000
    Si4989   Si       0.84279    0.48085    0.64135    1.000
    Si4990   Si       0.85926    0.42050    0.70152    1.000
    Si4991   Si       0.83678    0.33311    0.76770    1.000
    N4992    N        0.84470    0.32287    0.85424    1.000
    N4993    N        0.82433    0.29866    0.79207    1.000
    N4994    N        0.85743    0.35933    0.79607    1.000
    Si4995   Si       0.81394    0.26345    0.77005    1.000
    Si4996   Si       0.81303    0.30534    0.83302    1.000
    Si4997   Si       0.82338    0.39117    0.79814    1.000
    N4998    N        0.85275    0.42239    0.81529    1.000
    Si4999   Si       0.83307    0.41893    0.85904    1.000
    Si5000   Si       0.85231    0.50705    0.75811    1.000
    N5001    N        0.81659    0.48357    0.75292    1.000
    N5002    N        0.85384    0.42873    0.74510    1.000
    N5003    N        0.86096    0.28544    0.90826    1.000
    N5004    N        0.82864    0.36487    0.96893    1.000
    Si5005   Si       0.84615    0.32520    0.89735    1.000
    Si5006   Si       0.83436    0.26356    0.98665    1.000
    Si5007   Si       0.81798    0.33370    0.99694    1.000
    Si5008   Si       0.84817    0.46382    0.93980    1.000
    N5009    N        0.86561    0.49038    0.96793    1.000
    Si5010   Si       0.82241    0.49120    0.87688    1.000
    Si5011   Si       0.84959    0.40075    0.98315    1.000
    N5012    N        0.86401    0.42323    0.94826    1.000
    N5013    N        0.85618    0.48172    0.90277    1.000
    N5014    N        0.82439    0.40206    0.89947    1.000
    N5015    N        0.85525    0.57341    0.07224    1.000
    Si5016   Si       0.82232    0.56128    0.09897    1.000
    N5017    N        0.86211    0.51173    0.03372    1.000
    Si5018   Si       0.86812    0.55626    0.03572    1.000
    Si5019   Si       0.84467    0.51779    0.99372    1.000
    N5020    N        0.84258    0.63464    0.01296    1.000
    N5021    N        0.85124    0.56244    0.99523    1.000
    Si5022   Si       0.82971    0.63307    0.10779    1.000
    Si5023   Si       0.83488    0.73164    0.05975    1.000
    N5024    N        0.84256    0.65600    0.07344    1.000
    Si5025   Si       0.87136    0.64877    0.04354    1.000
    N5026    N        0.81665    0.71904    0.09868    1.000
    N5027    N        0.86726    0.61809    0.12322    1.000
    N5028    N        0.82159    0.57795    0.19510    1.000
    N5029    N        0.83640    0.54193    0.13494    1.000
    Si5030   Si       0.86138    0.57845    0.21041    1.000
    N5031    N        0.86833    0.54564    0.23820    1.000
    N5032    N        0.87232    0.61177    0.24078    1.000
    Si5033   Si       0.81431    0.54287    0.17068    1.000
    Si5034   Si       0.81379    0.74764    0.19209    1.000
    N5035    N        0.85519    0.69340    0.14797    1.000
    Si5036   Si       0.81797    0.66120    0.24440    1.000
    N5037    N        0.81640    0.75403    0.23760    1.000
    N5038    N        0.85144    0.68937    0.24673    1.000
    Si5039   Si       0.81525    0.70029    0.13780    1.000
    N5040    N        0.85213    0.57945    0.30102    1.000
    Si5041   Si       0.82645    0.57942    0.33713    1.000
    N5042    N        0.84471    0.60794    0.36153    1.000
    Si5043   Si       0.86317    0.61949    0.28489    1.000
    N5044    N        0.81360    0.54205    0.35518    1.000
    N5045    N        0.82226    0.63764    0.27960    1.000
    N5046    N        0.84173    0.67843    0.35735    1.000
    Si5047   Si       0.84845    0.71356    0.33453    1.000
    N5048    N        0.82122    0.72515    0.30495    1.000
    N5049    N        0.83278    0.75046    0.36083    1.000
    Si5050   Si       0.82180    0.71796    0.26188    1.000
    Si5051   Si       0.86786    0.64312    0.35370    1.000
    N5052    N        0.87299    0.57955    0.41425    1.000
    Si5053   Si       0.83664    0.60034    0.40538    1.000
    N5054    N        0.83155    0.60572    0.46476    1.000
    Si5055   Si       0.86265    0.59676    0.49410    1.000
    Si5056   Si       0.84353    0.64797    0.45318    1.000
    Si5057   Si       0.81918    0.75448    0.40066    1.000
    N5058    N        0.83087    0.64383    0.41191    1.000
    Si5059   Si       0.86827    0.73619    0.44943    1.000
    N5060    N        0.84069    0.72817    0.48340    1.000
    N5061    N        0.84573    0.57762    0.52862    1.000
    Si5062   Si       0.84622    0.59825    0.60439    1.000
    N5063    N        0.84412    0.51774    0.53160    1.000
    N5064    N        0.86352    0.55857    0.59546    1.000
    Si5065   Si       0.86746    0.54871    0.55382    1.000
    N5066    N        0.86305    0.62939    0.57797    1.000
    Si5067   Si       0.84729    0.64610    0.54169    1.000
    Si5068   Si       0.83299    0.72200    0.52533    1.000
    N5069    N        0.85364    0.68969    0.54419    1.000
    N5070    N        0.82046    0.75156    0.55534    1.000
    Si5071   Si       0.83556    0.59222    0.67796    1.000
    N5072    N        0.86026    0.60509    0.64435    1.000
    Si5073   Si       0.85645    0.52800    0.69420    1.000
    N5074    N        0.86330    0.56997    0.70287    1.000
    N5075    N        0.81890    0.61985    0.70731    1.000
    N5076    N        0.86578    0.51482    0.65423    1.000
    N5077    N        0.81291    0.52116    0.69876    1.000
    N5078    N        0.86717    0.67365    0.70592    1.000
    Si5079   Si       0.84105    0.70881    0.70136    1.000
    Si5080   Si       0.84498    0.64269    0.73227    1.000
    N5081    N        0.85554    0.73012    0.66726    1.000
    Si5082   Si       0.85333    0.70632    0.62884    1.000
    N5083    N        0.83732    0.74026    0.73128    1.000
    N5084    N        0.83961    0.59794    0.82767    1.000
    N5085    N        0.84940    0.55112    0.76763    1.000
    Si5086   Si       0.83488    0.58869    0.78485    1.000
    N5087    N        0.86123    0.61277    0.76203    1.000
    Si5088   Si       0.84679    0.55963    0.85303    1.000
    N5089    N        0.83882    0.51607    0.84679    1.000
    Si5090   Si       0.85702    0.63266    0.84741    1.000
    N5091    N        0.86218    0.66646    0.81812    1.000
    Si5092   Si       0.83701    0.74840    0.81272    1.000
    Si5093   Si       0.82292    0.67345    0.80104    1.000
    N5094    N        0.81953    0.66812    0.75775    1.000
    N5095    N        0.83972    0.60927    0.94248    1.000
    Si5096   Si       0.82753    0.58239    0.91037    1.000
    Si5097   Si       0.83448    0.60261    0.98539    1.000
    N5098    N        0.86376    0.57069    0.89079    1.000
    Si5099   Si       0.82937    0.75215    0.98772    1.000
    N5100    N        0.82136    0.68581    0.93819    1.000
    Si5101   Si       0.86089    0.70893    0.94133    1.000
    Si5102   Si       0.86838    0.63704    0.92303    1.000
    Si5103   Si       0.82464    0.74547    0.89022    1.000
    N5104    N        0.85904    0.74399    0.91741    1.000
    N5105    N        0.84291    0.64314    0.88674    1.000
    N5106    N        0.86473    0.72782    0.98162    1.000
    N5107    N        0.84938    0.81883    0.07148    1.000
    Si5108   Si       0.85562    0.85839    0.01198    1.000
    N5109    N        0.82272    0.82947    0.01209    1.000
    N5110    N        0.82128    0.76132    0.03040    1.000
    Si5111   Si       0.81901    0.84027    0.09587    1.000
    Si5112   Si       0.81622    0.80399    0.04567    1.000
    N5113    N        0.84657    0.89422    0.03846    1.000
    N5114    N        0.83744    0.99306    0.02893    1.000
    N5115    N        0.84665    0.93979    0.10095    1.000
    Si5116   Si       0.82407    0.91454    0.06958    1.000
    N5117    N        0.82287    0.82139    0.13354    1.000
    N5118    N        0.84886    0.76763    0.17659    1.000
    N5119    N        0.83983    0.83884    0.19501    1.000
    Si5120   Si       0.85060    0.80823    0.16335    1.000
    Si5121   Si       0.87068    0.85857    0.22176    1.000
    N5122    N        0.83973    0.96815    0.23535    1.000
    N5123    N        0.86136    0.90064    0.21356    1.000
    Si5124   Si       0.82571    0.96435    0.13050    1.000
    N5125    N        0.84823    0.95155    0.16665    1.000
    Si5126   Si       0.85013    0.90928    0.17278    1.000
    Si5127   Si       0.85888    0.97811    0.19911    1.000
    N5128    N        0.87633    0.89136    0.14150    1.000
    Si5129   Si       0.85620    0.93031    0.24544    1.000
    N5130    N        0.85497    0.85287    0.26113    1.000
    N5131    N        0.85627    0.84276    0.33389    1.000
    Si5132   Si       0.81601    0.82882    0.32494    1.000
    Si5133   Si       0.81647    0.87442    0.26667    1.000
    N5134    N        0.83875    0.97699    0.30010    1.000
    Si5135   Si       0.83440    0.93691    0.31516    1.000
    N5136    N        0.83309    0.91429    0.27806    1.000
    Si5137   Si       0.81875    0.98910    0.26602    1.000
    Si5138   Si       0.86800    0.99528    0.32643    1.000
    N5139    N        0.85643    0.98546    0.36972    1.000
    N5140    N        0.87479    0.93314    0.33329    1.000
    Si5141   Si       0.84607    0.85810    0.44001    1.000
    N5142    N        0.85031    0.77094    0.42975    1.000
    N5143    N        0.86296    0.82690    0.47055    1.000
    N5144    N        0.86885    0.83909    0.40774    1.000
    N5145    N        0.84741    0.89223    0.46850    1.000
    Si5146   Si       0.82674    0.95561    0.38613    1.000
    N5147    N        0.85225    0.96047    0.46563    1.000
    N5148    N        0.85542    0.92881    0.40494    1.000
    Si5149   Si       0.86728    0.92577    0.44683    1.000
    Si5150   Si       0.82013    0.96517    0.49334    1.000
    Si5151   Si       0.87032    0.99960    0.45073    1.000
    Si5152   Si       0.83578    0.78909    0.57333    1.000
    N5153    N        0.85728    0.80574    0.54031    1.000
    Si5154   Si       0.83477    0.82181    0.50676    1.000
    N5155    N        0.85646    0.78960    0.61170    1.000
    N5156    N        0.82019    0.85851    0.52352    1.000
    N5157    N        0.84661    0.91248    0.55055    1.000
    N5158    N        0.83576    0.98616    0.52834    1.000
    Si5159   Si       0.83336    0.89729    0.51072    1.000
    Si5160   Si       0.82676    0.98385    0.61716    1.000
    Si5161   Si       0.81835    0.91770    0.58397    1.000
    N5162    N        0.84340    0.90561    0.61686    1.000
    Si5163   Si       0.87109    0.82071    0.71707    1.000
    N5164    N        0.84266    0.85416    0.71611    1.000
    Si5165   Si       0.83908    0.80785    0.64540    1.000
    N5166    N        0.84256    0.85169    0.65068    1.000
    N5167    N        0.86157    0.79806    0.68327    1.000
    Si5168   Si       0.81991    0.86970    0.68341    1.000
    Si5169   Si       0.87178    0.87430    0.62871    1.000
    Si5170   Si       0.85333    0.92751    0.65550    1.000
    N5171    N        0.83413    0.97876    0.71067    1.000
    Si5172   Si       0.81670    0.93966    0.72235    1.000
    N5173    N        0.85911    0.96637    0.64034    1.000
    N5174    N        0.82215    0.91422    0.68531    1.000
    Si5175   Si       0.83891    0.81345    0.78748    1.000
    Si5176   Si       0.83885    0.87413    0.75341    1.000
    N5177    N        0.86251    0.79898    0.75438    1.000
    N5178    N        0.86025    0.82218    0.82496    1.000
    N5179    N        0.81653    0.84780    0.77735    1.000
    Si5180   Si       0.86901    0.79519    0.85866    1.000
    N5181    N        0.84070    0.76242    0.85406    1.000
    N5182    N        0.84950    0.99957    0.83491    1.000
    N5183    N        0.83061    0.91618    0.75938    1.000
    Si5184   Si       0.84345    0.95810    0.84310    1.000
    N5185    N        0.85422    0.91877    0.81998    1.000
    Si5186   Si       0.81509    0.91867    0.80055    1.000
    N5187    N        0.86313    0.87042    0.96866    1.000
    Si5188   Si       0.83193    0.87686    0.93860    1.000
    N5189    N        0.83863    0.78615    0.96199    1.000
    N5190    N        0.85384    0.88267    0.90128    1.000
    Si5191   Si       0.85681    0.92688    0.90429    1.000
    N5192    N        0.82270    0.94635    0.88220    1.000
    N5193    N        0.81599    0.91756    0.93724    1.000
    Si5194   Si       0.88848    0.09722    0.03810    1.000
    N5195    N        0.92184    0.08978    0.00838    1.000
    N5196    N        0.92489    0.11655    0.06375    1.000
    Si5197   Si       0.87724    0.09302    0.12037    1.000
    N5198    N        0.92639    0.04349    0.07075    1.000
    Si5199   Si       0.93190    0.01915    0.10761    1.000
    N5200    N        0.86954    0.13288    0.02361    1.000
    N5201    N        0.90585    0.16787    0.10915    1.000
    Si5202   Si       0.88022    0.17315    0.03564    1.000
    N5203    N        0.92701    0.17428    0.03764    1.000
    Si5204   Si       0.87651    0.19913    0.10782    1.000
    N5205    N        0.87295    0.20160    0.00338    1.000
    Si5206   Si       0.90079    0.23351    0.99884    1.000
    N5207    N        0.92026    0.08612    0.12456    1.000
    Si5208   Si       0.91459    0.06526    0.23333    1.000
    N5209    N        0.91205    0.06018    0.19042    1.000
    N5210    N        0.89457    0.10585    0.23159    1.000
    Si5211   Si       0.88292    0.03625    0.16807    1.000
    N5212    N        0.86890    0.12850    0.14361    1.000
    N5213    N        0.89866    0.23406    0.12285    1.000
    N5214    N        0.89587    0.18911    0.17402    1.000
    Si5215   Si       0.90513    0.15195    0.15139    1.000
    N5216    N        0.88448    0.20403    0.23897    1.000
    Si5217   Si       0.89554    0.24630    0.24051    1.000
    N5218    N        0.87554    0.25121    0.19999    1.000
    Si5219   Si       0.92524    0.21834    0.15759    1.000
    Si5220   Si       0.88601    0.06309    0.34935    1.000
    N5221    N        0.88557    0.10610    0.34452    1.000
    N5222    N        0.90838    0.03159    0.25615    1.000
    N5223    N        0.92900    0.05145    0.34943    1.000
    Si5224   Si       0.92234    0.17379    0.31351    1.000
    N5225    N        0.91860    0.16795    0.35627    1.000
    N5226    N        0.88801    0.15620    0.29321    1.000
    Si5227   Si       0.89950    0.25217    0.31001    1.000
    N5228    N        0.88050    0.24460    0.34760    1.000
    N5229    N        0.92334    0.21604    0.30060    1.000
    N5230    N        0.87365    0.26051    0.27507    1.000
    Si5231   Si       0.91676    0.12625    0.37134    1.000
    Si5232   Si       0.87767    0.06533    0.47827    1.000
    N5233    N        0.91770    0.06308    0.46067    1.000
    N5234    N        0.90816    0.10959    0.41179    1.000
    N5235    N        0.87335    0.02446    0.48700    1.000
    N5236    N        0.92620    0.13280    0.47491    1.000
    Si5237   Si       0.90667    0.25417    0.38068    1.000
    N5238    N        0.90292    0.19638    0.47199    1.000
    Si5239   Si       0.91573    0.23594    0.45779    1.000
    N5240    N        0.89378    0.24419    0.41943    1.000
    N5241    N        0.89629    0.07637    0.57794    1.000
    Si5242   Si       0.88728    0.03456    0.58812    1.000
    Si5243   Si       0.90595    0.12778    0.51210    1.000
    N5244    N        0.87843    0.09546    0.50898    1.000
    N5245    N        0.89954    0.01612    0.54891    1.000
    N5246    N        0.89866    0.14114    0.59912    1.000
    N5247    N        0.91179    0.20947    0.58400    1.000
    N5248    N        0.88728    0.16394    0.53020    1.000
    Si5249   Si       0.88799    0.17611    0.57466    1.000
    Si5250   Si       0.89947    0.25159    0.58766    1.000
    N5251    N        0.91422    0.02340    0.62008    1.000
    Si5252   Si       0.89541    0.12119    0.69208    1.000
    N5253    N        0.90535    0.10312    0.65441    1.000
    Si5254   Si       0.93073    0.12592    0.62760    1.000
    N5255    N        0.91851    0.23080    0.69012    1.000
    Si5256   Si       0.91336    0.19195    0.71204    1.000
    N5257    N        0.88859    0.16364    0.69277    1.000
    Si5258   Si       0.88643    0.24857    0.66285    1.000
    N5259    N        0.89008    0.20164    0.74748    1.000
    Si5260   Si       0.89589    0.03932    0.77350    1.000
    Si5261   Si       0.88799    0.02259    0.83577    1.000
    N5262    N        0.91067    0.12830    0.78146    1.000
    N5263    N        0.92775    0.05994    0.75380    1.000
    N5264    N        0.88007    0.05730    0.80702    1.000
    N5265    N        0.87899    0.05373    0.86846    1.000
    Si5266   Si       0.88574    0.13061    0.87396    1.000
    N5267    N        0.92537    0.25282    0.79660    1.000
    N5268    N        0.89030    0.18658    0.81159    1.000
    Si5269   Si       0.89093    0.20228    0.85163    1.000
    Si5270   Si       0.91267    0.21034    0.78416    1.000
    N5271    N        0.88117    0.24461    0.85340    1.000
    Si5272   Si       0.87789    0.14524    0.80191    1.000
    Si5273   Si       0.88383    0.07557    0.90702    1.000
    N5274    N        0.91723    0.10392    0.88533    1.000
    N5275    N        0.90490    0.06240    0.94423    1.000
    Si5276   Si       0.87849    0.02678    0.94230    1.000
    N5277    N        0.87791    0.17182    0.87970    1.000
    N5278    N        0.89586    0.22774    0.91930    1.000
    Si5279   Si       0.89551    0.27703    0.11002    1.000
    Si5280   Si       0.89119    0.34403    0.00381    1.000
    N5281    N        0.92149    0.32764    0.03293    1.000
    Si5282   Si       0.89711    0.37563    0.11445    1.000
    N5283    N        0.90618    0.26286    0.03181    1.000
    N5284    N        0.87646    0.38395    0.01059    1.000
    N5285    N        0.93488    0.28943    0.09488    1.000
    N5286    N        0.90762    0.38597    0.07294    1.000
    Si5287   Si       0.87694    0.40524    0.04821    1.000
    Si5288   Si       0.88092    0.48150    0.05983    1.000
    N5289    N        0.89104    0.44503    0.03656    1.000
    N5290    N        0.92099    0.49952    0.06517    1.000
    Si5291   Si       0.92855    0.45099    0.01584    1.000
    N5292    N        0.92870    0.48953    0.99595    1.000
    N5293    N        0.90956    0.36551    0.20553    1.000
    N5294    N        0.91795    0.34289    0.13414    1.000
    Si5295   Si       0.87351    0.34861    0.22314    1.000
    Si5296   Si       0.92710    0.37093    0.16732    1.000
    Si5297   Si       0.89030    0.50538    0.23792    1.000
    N5298    N        0.93203    0.45225    0.17824    1.000
    Si5299   Si       0.90037    0.47827    0.16602    1.000
    N5300    N        0.92088    0.40351    0.13869    1.000
    Si5301   Si       0.88411    0.30630    0.28707    1.000
    N5302    N        0.91654    0.29108    0.31013    1.000
    N5303    N        0.89945    0.32444    0.25184    1.000
    N5304    N        0.89388    0.38706    0.29777    1.000
    N5305    N        0.89867    0.40826    0.36509    1.000
    Si5306   Si       0.88014    0.49678    0.31627    1.000
    Si5307   Si       0.87969    0.41461    0.32774    1.000
    N5308    N        0.87723    0.45490    0.30949    1.000
    N5309    N        0.92015    0.29580    0.37889    1.000
    Si5310   Si       0.91592    0.31725    0.41572    1.000
    N5311    N        0.92599    0.35942    0.41344    1.000
    N5312    N        0.87432    0.30760    0.42761    1.000
    N5313    N        0.90243    0.25875    0.49453    1.000
    N5314    N        0.87260    0.46841    0.48473    1.000
    Si5315   Si       0.90534    0.48784    0.46439    1.000
    N5316    N        0.87561    0.42182    0.43065    1.000
    N5317    N        0.92653    0.44727    0.46391    1.000
    Si5318   Si       0.88595    0.42924    0.47098    1.000
    N5319    N        0.92538    0.46632    0.39132    1.000
    Si5320   Si       0.89530    0.50378    0.39026    1.000
    Si5321   Si       0.88903    0.44081    0.39353    1.000
    N5322    N        0.89445    0.34330    0.53491    1.000
    N5323    N        0.92092    0.27547    0.55666    1.000
    Si5324   Si       0.91592    0.37456    0.51324    1.000
    N5325    N        0.92350    0.32776    0.59849    1.000
    Si5326   Si       0.92431    0.31761    0.55825    1.000
    Si5327   Si       0.88719    0.31357    0.61994    1.000
    Si5328   Si       0.90512    0.47264    0.59480    1.000
    N5329    N        0.91158    0.46057    0.55274    1.000
    Si5330   Si       0.90780    0.41892    0.56695    1.000
    N5331    N        0.92279    0.43221    0.60745    1.000
    N5332    N        0.88284    0.39942    0.50113    1.000
    N5333    N        0.89617    0.27120    0.62766    1.000
    Si5334   Si       0.90411    0.36709    0.67427    1.000
    Si5335   Si       0.89542    0.30342    0.71789    1.000
    N5336    N        0.91985    0.33985    0.70501    1.000
    N5337    N        0.87469    0.34578    0.64972    1.000
    N5338    N        0.92684    0.28027    0.73332    1.000
    N5339    N        0.87185    0.27768    0.69005    1.000
    N5340    N        0.89828    0.40322    0.69743    1.000
    Si5341   Si       0.92267    0.49594    0.72574    1.000
    N5342    N        0.88057    0.50771    0.72427    1.000
    N5343    N        0.91087    0.30873    0.83010    1.000
    N5344    N        0.90435    0.37088    0.84498    1.000
    Si5345   Si       0.91619    0.26783    0.83867    1.000
    Si5346   Si       0.87720    0.33759    0.82962    1.000
    N5347    N        0.90422    0.48705    0.85379    1.000
    N5348    N        0.91395    0.42992    0.80222    1.000
    Si5349   Si       0.89195    0.41091    0.83415    1.000
    Si5350   Si       0.87587    0.44284    0.78168    1.000
    N5351    N        0.87616    0.48683    0.78881    1.000
    N5352    N        0.91653    0.34688    0.96794    1.000
    Si5353   Si       0.91322    0.35428    0.92555    1.000
    Si5354   Si       0.89049    0.26964    0.93398    1.000
    N5355    N        0.87668    0.26191    0.97407    1.000
    N5356    N        0.87222    0.35707    0.91094    1.000
    Si5357   Si       0.87287    0.40276    0.91162    1.000
    N5358    N        0.92024    0.39839    0.92122    1.000
    Si5359   Si       0.89503    0.46399    0.88901    1.000
    N5360    N        0.87713    0.42519    0.87409    1.000
    N5361    N        0.92375    0.47220    0.92099    1.000
    Si5362   Si       0.90752    0.49173    0.95693    1.000
    N5363    N        0.90163    0.62008    0.05905    1.000
    N5364    N        0.91123    0.56108    0.02751    1.000
    Si5365   Si       0.88808    0.59561    0.09161    1.000
    N5366    N        0.91946    0.57231    0.10920    1.000
    Si5367   Si       0.92811    0.59949    0.03088    1.000
    Si5368   Si       0.93000    0.52118    0.02667    1.000
    N5369    N        0.89420    0.67873    0.02384    1.000
    Si5370   Si       0.89215    0.71974    0.01405    1.000
    Si5371   Si       0.91493    0.75092    0.06320    1.000
    N5372    N        0.87711    0.73255    0.05689    1.000
    N5373    N        0.92225    0.75383    0.02089    1.000
    Si5374   Si       0.89573    0.61373    0.15486    1.000
    Si5375   Si       0.90941    0.54129    0.16345    1.000
    N5376    N        0.88645    0.57680    0.17526    1.000
    N5377    N        0.89886    0.51210    0.19393    1.000
    Si5378   Si       0.90849    0.63107    0.22178    1.000
    N5379    N        0.91277    0.50368    0.13567    1.000
    N5380    N        0.90480    0.74866    0.13849    1.000
    Si5381   Si       0.89366    0.69796    0.23803    1.000
    N5382    N        0.89432    0.71295    0.19795    1.000
    N5383    N        0.88830    0.64409    0.18496    1.000
    N5384    N        0.92395    0.68234    0.13923    1.000
    Si5385   Si       0.88989    0.75381    0.17792    1.000
    Si5386   Si       0.89220    0.68316    0.16766    1.000
    N5387    N        0.92531    0.66714    0.23765    1.000
    N5388    N        0.91833    0.58033    0.28336    1.000
    Si5389   Si       0.88123    0.55831    0.27680    1.000
    N5390    N        0.89857    0.51843    0.28340    1.000
    N5391    N        0.89450    0.51822    0.34918    1.000
    Si5392   Si       0.92307    0.60392    0.31918    1.000
    N5393    N        0.93392    0.57674    0.35181    1.000
    N5394    N        0.88897    0.63457    0.31460    1.000
    N5395    N        0.90630    0.73322    0.25927    1.000
    N5396    N        0.88672    0.70400    0.31761    1.000
    Si5397   Si       0.91614    0.66916    0.32489    1.000
    Si5398   Si       0.91718    0.72913    0.30043    1.000
    N5399    N        0.89304    0.56862    0.48020    1.000
    Si5400   Si       0.89979    0.55929    0.43766    1.000
    N5401    N        0.89748    0.51648    0.43239    1.000
    N5402    N        0.88310    0.66459    0.44933    1.000
    N5403    N        0.90596    0.65981    0.36960    1.000
    Si5404   Si       0.90134    0.67883    0.41218    1.000
    N5405    N        0.89480    0.72323    0.41297    1.000
    Si5406   Si       0.90797    0.65732    0.48591    1.000
    N5407    N        0.90495    0.74923    0.46849    1.000
    Si5408   Si       0.92506    0.75249    0.42959    1.000
    N5409    N        0.90961    0.55009    0.54307    1.000
    N5410    N        0.92067    0.62063    0.60951    1.000
    Si5411   Si       0.92467    0.54999    0.50269    1.000
    N5412    N        0.91736    0.51299    0.60005    1.000
    N5413    N        0.87366    0.63694    0.50575    1.000
    Si5414   Si       0.89324    0.65310    0.60056    1.000
    N5415    N        0.91483    0.68027    0.57505    1.000
    N5416    N        0.89220    0.74599    0.53673    1.000
    Si5417   Si       0.88801    0.71045    0.56377    1.000
    Si5418   Si       0.92066    0.73569    0.50656    1.000
    N5419    N        0.92341    0.69173    0.50936    1.000
    N5420    N        0.88105    0.72808    0.60297    1.000
    Si5421   Si       0.88893    0.53741    0.62466    1.000
    Si5422   Si       0.90372    0.60509    0.64590    1.000
    N5423    N        0.91530    0.56397    0.64655    1.000
    N5424    N        0.91722    0.63264    0.67681    1.000
    Si5425   Si       0.87932    0.57585    0.74403    1.000
    N5426    N        0.92196    0.70506    0.67525    1.000
    Si5427   Si       0.89594    0.67064    0.67281    1.000
    N5428    N        0.87748    0.67171    0.63565    1.000
    N5429    N        0.90339    0.75148    0.71918    1.000
    N5430    N        0.88822    0.55050    0.82959    1.000
    N5431    N        0.91647    0.57059    0.76798    1.000
    N5432    N        0.89788    0.62027    0.85802    1.000
    Si5433   Si       0.92324    0.56873    0.81309    1.000
    Si5434   Si       0.87784    0.50740    0.82680    1.000
    Si5435   Si       0.87276    0.75661    0.75081    1.000
    Si5436   Si       0.89485    0.69372    0.81012    1.000
    N5437    N        0.91553    0.72140    0.83767    1.000
    N5438    N        0.87637    0.74218    0.79269    1.000
    N5439    N        0.92400    0.66480    0.80027    1.000
    Si5440   Si       0.91640    0.75777    0.81606    1.000
    N5441    N        0.91672    0.53277    0.94730    1.000
    N5442    N        0.90433    0.61157    0.92597    1.000
    Si5443   Si       0.90419    0.58748    0.88938    1.000
    N5444    N        0.88745    0.67456    0.93356    1.000
    Si5445   Si       0.92857    0.68683    0.93577    1.000
    N5446    N        0.89349    0.84193    0.02796    1.000
    N5447    N        0.91421    0.79021    0.08304    1.000
    N5448    N        0.90655    0.85494    0.09694    1.000
    Si5449   Si       0.89122    0.82530    0.06917    1.000
    Si5450   Si       0.93126    0.85471    0.01199    1.000
    N5451    N        0.90951    0.92202    0.08106    1.000
    N5452    N        0.91233    0.98623    0.03782    1.000
    Si5453   Si       0.88536    0.92588    0.11682    1.000
    Si5454   Si       0.87582    0.97966    0.01665    1.000
    Si5455   Si       0.93084    0.95508    0.06108    1.000
    Si5456   Si       0.91575    0.78866    0.12550    1.000
    N5457    N        0.89233    0.81939    0.15062    1.000
    Si5458   Si       0.90394    0.85949    0.13959    1.000
    N5459    N        0.91132    0.77886    0.20376    1.000
    N5460    N        0.91373    0.84262    0.22055    1.000
    Si5461   Si       0.92456    0.81899    0.18267    1.000
    Si5462   Si       0.91482    0.80444    0.24363    1.000
    N5463    N        0.90751    0.01160    0.14411    1.000
    Si5464   Si       0.92533    0.97746    0.16646    1.000
    N5465    N        0.90245    0.97079    0.20318    1.000
    N5466    N        0.91611    0.94246    0.14364    1.000
    Si5467   Si       0.92454    0.94332    0.23058    1.000
    N5468    N        0.90364    0.81357    0.28434    1.000
    N5469    N        0.91915    0.82869    0.35461    1.000
    Si5470   Si       0.87894    0.84645    0.29760    1.000
    N5471    N        0.92945    0.76329    0.32267    1.000
    Si5472   Si       0.88254    0.85078    0.36723    1.000
    N5473    N        0.90854    0.87731    0.30648    1.000
    Si5474   Si       0.93119    0.80598    0.31922    1.000
    N5475    N        0.89712    0.93266    0.26105    1.000
    N5476    N        0.90917    0.99078    0.31274    1.000
    Si5477   Si       0.90597    0.92237    0.30216    1.000
    Si5478   Si       0.92778    0.99879    0.27461    1.000
    N5479    N        0.90520    0.88923    0.37242    1.000
    N5480    N        0.91892    0.79480    0.42175    1.000
    Si5481   Si       0.87585    0.80450    0.43227    1.000
    N5482    N        0.92732    0.85541    0.46192    1.000
    N5483    N        0.92141    0.95249    0.38523    1.000
    N5484    N        0.91163    0.92374    0.44766    1.000
    N5485    N        0.91182    0.99691    0.43928    1.000
    Si5486   Si       0.88727    0.92815    0.37437    1.000
    Si5487   Si       0.92997    0.95805    0.42816    1.000
    N5488    N        0.89255    0.86105    0.59357    1.000
    Si5489   Si       0.89652    0.78985    0.54221    1.000
    N5490    N        0.91509    0.79621    0.57999    1.000
    Si5491   Si       0.89539    0.77050    0.60806    1.000
    N5492    N        0.92109    0.80980    0.51338    1.000
    N5493    N        0.89603    0.88031    0.51808    1.000
    Si5494   Si       0.93006    0.83742    0.59148    1.000
    Si5495   Si       0.90024    0.84482    0.49427    1.000
    Si5496   Si       0.88300    0.89150    0.56226    1.000
    N5497    N        0.91643    0.91725    0.56573    1.000
    N5498    N        0.90230    0.95878    0.51192    1.000
    Si5499   Si       0.91769    0.91904    0.52063    1.000
    Si5500   Si       0.87844    0.99514    0.51977    1.000
    N5501    N        0.91297    0.83281    0.72286    1.000
    N5502    N        0.91280    0.77433    0.64628    1.000
    Si5503   Si       0.88761    0.76280    0.67981    1.000
    Si5504   Si       0.87413    0.98406    0.72839    1.000
    N5505    N        0.89109    0.90572    0.65506    1.000
    Si5506   Si       0.88924    0.99734    0.65102    1.000
    N5507    N        0.89879    0.98656    0.69182    1.000
    Si5508   Si       0.92996    0.92527    0.65268    1.000
    N5509    N        0.92512    0.96512    0.63549    1.000
    N5510    N        0.89987    0.86818    0.85278    1.000
    N5511    N        0.90924    0.79169    0.84201    1.000
    Si5512   Si       0.90472    0.83405    0.82567    1.000
    Si5513   Si       0.91927    0.85743    0.75856    1.000
    N5514    N        0.88088    0.87756    0.76591    1.000
    N5515    N        0.93141    0.83174    0.79275    1.000
    N5516    N        0.88744    0.95203    0.75373    1.000
    Si5517   Si       0.89898    0.91211    0.84634    1.000
    N5518    N        0.91424    0.92594    0.80581    1.000
    Si5519   Si       0.92355    0.96707    0.77552    1.000
    N5520    N        0.90987    0.00284    0.79657    1.000
    Si5521   Si       0.87729    0.91800    0.78057    1.000
    N5522    N        0.92302    0.00422    0.85656    1.000
    N5523    N        0.88355    0.94364    0.87147    1.000
    N5524    N        0.91918    0.87164    0.91627    1.000
    N5525    N        0.91258    0.78105    0.95087    1.000
    Si5526   Si       0.88534    0.85388    0.89287    1.000
    Si5527   Si       0.87164    0.78399    0.93426    1.000
    N5528    N        0.87106    0.81264    0.89811    1.000
    N5529    N        0.87244    0.00470    0.97889    1.000
    N5530    N        0.92717    0.88717    0.98370    1.000
    Si5531   Si       0.89393    0.96605    0.95772    1.000
    N5532    N        0.89531    0.99176    0.92170    1.000
    Si5533   Si       0.91548    0.97373    0.88765    1.000
    Si5534   Si       0.89960    0.88942    0.95086    1.000
    N5535    N        0.88577    0.92847    0.93693    1.000
    N5536    N        0.88744    0.94200    0.99917    1.000
    Si5537   Si       0.92929    0.92952    0.99375    1.000
    Si5538   Si       0.94490    0.01776    0.03812    1.000
    Si5539   Si       0.93934    0.08243    0.08479    1.000
    Si5540   Si       0.94027    0.12867    0.02032    1.000
    N5541    N        0.98191    0.08421    0.08870    1.000
    N5542    N        0.98339    0.12951    0.03345    1.000
    N5543    N        0.98513    0.01056    0.05034    1.000
    N5544    N        0.97488    0.16039    0.09301    1.000
    N5545    N        0.97869    0.23684    0.10763    1.000
    Si5546   Si       0.95278    0.18706    0.00405    1.000
    Si5547   Si       0.98645    0.19344    0.11783    1.000
    Si5548   Si       0.93484    0.15830    0.07850    1.000
    N5549    N        0.97013    0.03137    0.12450    1.000
    N5550    N        0.97650    0.06999    0.17885    1.000
    Si5551   Si       0.93564    0.08657    0.16501    1.000
    N5552    N        0.95325    0.08380    0.23996    1.000
    N5553    N        0.93279    0.12932    0.17713    1.000
    Si5554   Si       0.93305    0.12130    0.22229    1.000
    Si5555   Si       0.98253    0.02783    0.17030    1.000
    N5556    N        0.94857    0.25067    0.17606    1.000
    N5557    N        0.96592    0.14876    0.22536    1.000
    Si5558   Si       0.96906    0.15567    0.18041    1.000
    N5559    N        0.96055    0.18975    0.15316    1.000
    Si5560   Si       0.96705    0.07135    0.35204    1.000
    Si5561   Si       0.96954    0.06000    0.27720    1.000
    N5562    N        0.95708    0.11299    0.36312    1.000
    N5563    N        0.98184    0.08316    0.31293    1.000
    N5564    N        0.96369    0.01994    0.29423    1.000
    Si5565   Si       0.94094    0.01405    0.33228    1.000
    Si5566   Si       0.98220    0.13991    0.33929    1.000
    N5567    N        0.95949    0.15257    0.30268    1.000
    Si5568   Si       0.95749    0.22668    0.27980    1.000
    Si5569   Si       0.98307    0.15762    0.26538    1.000
    N5570    N        0.98456    0.17621    0.36356    1.000
    Si5571   Si       0.97541    0.25642    0.35140    1.000
    N5572    N        0.94438    0.23367    0.37187    1.000
    N5573    N        0.98507    0.24249    0.31113    1.000
    N5574    N        0.93934    0.25042    0.24695    1.000
    N5575    N        0.97612    0.09824    0.44266    1.000
    N5576    N        0.97745    0.02920    0.44142    1.000
    Si5577   Si       0.93828    0.02339    0.46040    1.000
    Si5578   Si       0.93328    0.10174    0.44673    1.000
    Si5579   Si       0.98241    0.20934    0.43888    1.000
    N5580    N        0.97472    0.18702    0.47726    1.000
    N5581    N        0.94942    0.18318    0.42080    1.000
    Si5582   Si       0.93744    0.17145    0.46169    1.000
    Si5583   Si       0.94681    0.19081    0.38024    1.000
    N5584    N        0.95757    0.24407    0.44654    1.000
    N5585    N        0.96232    0.05715    0.55274    1.000
    N5586    N        0.95939    0.10837    0.59643    1.000
    N5587    N        0.94001    0.12210    0.53870    1.000
    Si5588   Si       0.94381    0.01689    0.54151    1.000
    Si5589   Si       0.93534    0.08921    0.56686    1.000
    Si5590   Si       0.96895    0.14348    0.56308    1.000
    Si5591   Si       0.95538    0.21535    0.58088    1.000
    N5592    N        0.95976    0.21857    0.53776    1.000
    N5593    N        0.97133    0.17533    0.59269    1.000
    N5594    N        0.96724    0.24716    0.60668    1.000
    Si5595   Si       0.93902    0.25403    0.52213    1.000
    Si5596   Si       0.95515    0.02993    0.73535    1.000
    N5597    N        0.95833    0.01937    0.69246    1.000
    N5598    N        0.93238    0.11855    0.71567    1.000
    Si5599   Si       0.98867    0.16390    0.62877    1.000
    N5600    N        0.95627    0.18076    0.71713    1.000
    Si5601   Si       0.95230    0.24882    0.71014    1.000
    N5602    N        0.95636    0.14952    0.65450    1.000
    Si5603   Si       0.96143    0.14418    0.69709    1.000
    N5604    N        0.98173    0.25042    0.67904    1.000
    N5605    N        0.97788    0.24002    0.74541    1.000
    N5606    N        0.96255    0.04555    0.81430    1.000
    N5607    N        0.97035    0.10711    0.78152    1.000
    Si5608   Si       0.93353    0.10165    0.75629    1.000
    Si5609   Si       0.94827    0.00443    0.82094    1.000
    N5610    N        0.95611    0.14176    0.84297    1.000
    Si5611   Si       0.94878    0.14257    0.80094    1.000
    N5612    N        0.95111    0.18454    0.78523    1.000
    Si5613   Si       0.97617    0.19618    0.75147    1.000
    N5614    N        0.93126    0.20283    0.86768    1.000
    Si5615   Si       0.95913    0.11548    0.87772    1.000
    N5616    N        0.96974    0.08732    0.95761    1.000
    Si5617   Si       0.96963    0.13031    0.94841    1.000
    Si5618   Si       0.93442    0.06572    0.97537    1.000
    N5619    N        0.98305    0.02186    0.93733    1.000
    N5620    N        0.94520    0.02916    0.99609    1.000
    Si5621   Si       0.96240    0.24684    0.95838    1.000
    Si5622   Si       0.93364    0.23326    0.89913    1.000
    Si5623   Si       0.96386    0.17491    0.87323    1.000
    N5624    N        0.96595    0.14644    0.90715    1.000
    N5625    N        0.94609    0.15009    0.98164    1.000
    N5626    N        0.93921    0.22336    0.98436    1.000
    N5627    N        0.97119    0.22609    0.92052    1.000
    N5628    N        0.96592    0.35217    0.08757    1.000
    N5629    N        0.97399    0.27322    0.04091    1.000
    Si5630   Si       0.93777    0.36328    0.05335    1.000
    Si5631   Si       0.95079    0.32355    0.11522    1.000
    N5632    N        0.96134    0.37619    0.01838    1.000
    Si5633   Si       0.93699    0.29100    0.05047    1.000
    N5634    N        0.95959    0.44045    0.04482    1.000
    Si5635   Si       0.97749    0.41497    0.01229    1.000
    N5636    N        0.96041    0.45585    0.10853    1.000
    Si5637   Si       0.94067    0.49408    0.10292    1.000
    Si5638   Si       0.98907    0.44417    0.07748    1.000
    N5639    N        0.95865    0.30946    0.21158    1.000
    N5640    N        0.97016    0.36777    0.18011    1.000
    N5641    N        0.97767    0.30428    0.14269    1.000
    Si5642   Si       0.96107    0.26689    0.21477    1.000
    Si5643   Si       0.93526    0.33900    0.23386    1.000
    Si5644   Si       0.98320    0.32641    0.18184    1.000
    Si5645   Si       0.97595    0.26039    0.14367    1.000
    N5646    N        0.98501    0.48597    0.20487    1.000
    Si5647   Si       0.95116    0.43451    0.14455    1.000
    N5648    N        0.92953    0.48072    0.24471    1.000
    N5649    N        0.99002    0.43051    0.16648    1.000
    N5650    N        0.97189    0.42187    0.23327    1.000
    Si5651   Si       0.95359    0.45794    0.21599    1.000
    N5652    N        0.97991    0.29849    0.35125    1.000
    N5653    N        0.95460    0.36344    0.26547    1.000
    Si5654   Si       0.93891    0.31200    0.34263    1.000
    Si5655   Si       0.93441    0.37464    0.30150    1.000
    N5656    N        0.93673    0.35456    0.33994    1.000
    N5657    N        0.96138    0.41042    0.30830    1.000
    Si5658   Si       0.97837    0.40005    0.26988    1.000
    Si5659   Si       0.98129    0.42394    0.34414    1.000
    N5660    N        0.98271    0.46722    0.34766    1.000
    Si5661   Si       0.97862    0.28169    0.46029    1.000
    N5662    N        0.94862    0.30992    0.44696    1.000
    Si5663   Si       0.95681    0.35345    0.44734    1.000
    N5664    N        0.94441    0.38140    0.47829    1.000
    Si5665   Si       0.93097    0.38010    0.37588    1.000
    N5666    N        0.96627    0.40837    0.38230    1.000
    N5667    N        0.99084    0.42374    0.44860    1.000
    Si5668   Si       0.95993    0.42381    0.47729    1.000
    Si5669   Si       0.96531    0.48290    0.38306    1.000
    N5670    N        0.92787    0.50828    0.49378    1.000
    N5671    N        0.96150    0.33129    0.53943    1.000
    Si5672   Si       0.97147    0.36991    0.55793    1.000
    N5673    N        0.97186    0.27726    0.50409    1.000
    N5674    N        0.98367    0.35576    0.59685    1.000
    Si5675   Si       0.94078    0.47895    0.52567    1.000
    N5676    N        0.96888    0.44769    0.51370    1.000
    N5677    N        0.93477    0.39083    0.54970    1.000
    N5678    N        0.96436    0.50808    0.54884    1.000
    Si5679   Si       0.95457    0.34114    0.62583    1.000
    Si5680   Si       0.95303    0.34905    0.73054    1.000
    N5681    N        0.93890    0.37305    0.64857    1.000
    N5682    N        0.98038    0.31055    0.64573    1.000
    N5683    N        0.98574    0.33146    0.70918    1.000
    Si5684   Si       0.98572    0.26813    0.63847    1.000
    N5685    N        0.95111    0.43465    0.67603    1.000
    Si5686   Si       0.93714    0.42159    0.71427    1.000
    N5687    N        0.93166    0.45504    0.74056    1.000
    N5688    N        0.94412    0.50928    0.68917    1.000
    Si5689   Si       0.94963    0.41449    0.63886    1.000
    N5690    N        0.96314    0.39143    0.73350    1.000
    Si5691   Si       0.97041    0.47558    0.67522    1.000
    N5692    N        0.97185    0.34967    0.83581    1.000
    N5693    N        0.94535    0.32960    0.76879    1.000
    Si5694   Si       0.97869    0.33069    0.79606    1.000
    Si5695   Si       0.94236    0.28492    0.77376    1.000
    N5696    N        0.98429    0.28784    0.79188    1.000
    Si5697   Si       0.93368    0.33857    0.85333    1.000
    N5698    N        0.96315    0.47848    0.81114    1.000
    Si5699   Si       0.94747    0.44957    0.78232    1.000
    Si5700   Si       0.94450    0.49806    0.84471    1.000
    N5701    N        0.98794    0.42666    0.78920    1.000
    N5702    N        0.94253    0.26919    0.87209    1.000
    Si5703   Si       0.95733    0.29691    0.90296    1.000
    N5704    N        0.97832    0.37552    0.95136    1.000
    Si5705   Si       0.95852    0.35348    0.98256    1.000
    N5706    N        0.93731    0.33343    0.89609    1.000
    N5707    N        0.93460    0.27559    0.93606    1.000
    N5708    N        0.97857    0.31671    0.98435    1.000
    Si5709   Si       0.96674    0.47656    0.91444    1.000
    N5710    N        0.98382    0.43628    0.91991    1.000
    Si5711   Si       0.97282    0.50566    0.98116    1.000
    N5712    N        0.94835    0.42887    0.98187    1.000
    N5713    N        0.97398    0.49519    0.87561    1.000
    Si5714   Si       0.95512    0.41293    0.94153    1.000
    N5715    N        0.96651    0.59680    0.05079    1.000
    N5716    N        0.97249    0.52279    0.10398    1.000
    N5717    N        0.97018    0.53512    0.01179    1.000
    Si5718   Si       0.98625    0.61765    0.08355    1.000
    Si5719   Si       0.95919    0.56114    0.11929    1.000
    N5720    N        0.94207    0.72430    0.08347    1.000
    N5721    N        0.96509    0.68721    0.03030    1.000
    N5722    N        0.97327    0.65652    0.09859    1.000
    Si5723   Si       0.97202    0.69344    0.07389    1.000
    Si5724   Si       0.93407    0.66845    0.00721    1.000
    Si5725   Si       0.97198    0.71886    0.99585    1.000
    N5726    N        0.95003    0.55709    0.16288    1.000
    N5727    N        0.94363    0.60342    0.22019    1.000
    Si5728   Si       0.95970    0.59541    0.18168    1.000
    N5729    N        0.94034    0.61966    0.15153    1.000
    N5730    N        0.97933    0.72680    0.14130    1.000
    Si5731   Si       0.95931    0.65684    0.14134    1.000
    N5732    N        0.96558    0.72056    0.22125    1.000
    Si5733   Si       0.98663    0.71892    0.18335    1.000
    Si5734   Si       0.93737    0.72226    0.12618    1.000
    Si5735   Si       0.96734    0.67717    0.22245    1.000
    N5736    N        0.97819    0.67435    0.18034    1.000
    Si5737   Si       0.93475    0.74767    0.22827    1.000
    Si5738   Si       0.95381    0.58275    0.25708    1.000
    N5739    N        0.98050    0.60394    0.28340    1.000
    N5740    N        0.95780    0.51594    0.31085    1.000
    Si5741   Si       0.93987    0.51307    0.27294    1.000
    Si5742   Si       0.93366    0.53443    0.34259    1.000
    N5743    N        0.96573    0.54104    0.24995    1.000
    Si5744   Si       0.98560    0.70247    0.32795    1.000
    N5745    N        0.94664    0.69767    0.30812    1.000
    N5746    N        0.94884    0.63749    0.33218    1.000
    N5747    N        0.97648    0.68767    0.36798    1.000
    Si5748   Si       0.98879    0.63209    0.31489    1.000
    N5749    N        0.95195    0.52392    0.38129    1.000
    Si5750   Si       0.95849    0.57119    0.38993    1.000
    Si5751   Si       0.97818    0.57117    0.45557    1.000
    N5752    N        0.94272    0.56798    0.43016    1.000
    N5753    N        0.96715    0.61789    0.39625    1.000
    N5754    N        0.96504    0.73936    0.42945    1.000
    N5755    N        0.94443    0.67372    0.41849    1.000
    Si5756   Si       0.96940    0.64308    0.43876    1.000
    N5757    N        0.94542    0.63721    0.47740    1.000
    Si5758   Si       0.98165    0.70360    0.40785    1.000
    Si5759   Si       0.95061    0.65480    0.37548    1.000
    N5760    N        0.96566    0.57274    0.58097    1.000
    Si5761   Si       0.95529    0.61404    0.58443    1.000
    Si5762   Si       0.94182    0.53788    0.57222    1.000
    Si5763   Si       0.97022    0.61653    0.50681    1.000
    N5764    N        0.95118    0.63074    0.54341    1.000
    N5765    N        0.96053    0.57343    0.49559    1.000
    N5766    N        0.95720    0.75193    0.52000    1.000
    Si5767   Si       0.94437    0.67343    0.54332    1.000
    N5768    N        0.98281    0.69326    0.55478    1.000
    N5769    N        0.98177    0.64323    0.60331    1.000
    Si5770   Si       0.94766    0.55008    0.67359    1.000
    Si5771   Si       0.95314    0.61934    0.69765    1.000
    N5772    N        0.94218    0.57726    0.70744    1.000
    Si5773   Si       0.95403    0.56068    0.74513    1.000
    N5774    N        0.98709    0.61449    0.67083    1.000
    N5775    N        0.96218    0.64693    0.73193    1.000
    Si5776   Si       0.95827    0.72078    0.65585    1.000
    N5777    N        0.97189    0.73725    0.69406    1.000
    N5778    N        0.96967    0.74780    0.62493    1.000
    Si5779   Si       0.93421    0.72121    0.71274    1.000
    N5780    N        0.98328    0.68448    0.66271    1.000
    N5781    N        0.95284    0.53918    0.82778    1.000
    Si5782   Si       0.96917    0.57282    0.85749    1.000
    N5783    N        0.95022    0.60153    0.82524    1.000
    N5784    N        0.98186    0.56599    0.77847    1.000
    Si5785   Si       0.97685    0.52225    0.79502    1.000
    N5786    N        0.95338    0.51556    0.75376    1.000
    Si5787   Si       0.99070    0.60148    0.80186    1.000
    Si5788   Si       0.97523    0.73512    0.77026    1.000
    Si5789   Si       0.95888    0.67281    0.77445    1.000
    N5790    N        0.94516    0.70958    0.75149    1.000
    N5791    N        0.95100    0.66616    0.86299    1.000
    N5792    N        0.98408    0.73087    0.85803    1.000
    Si5793   Si       0.94611    0.70871    0.86801    1.000
    N5794    N        0.98554    0.70336    0.79705    1.000
    Si5795   Si       0.93182    0.63963    0.83573    1.000
    N5796    N        0.94190    0.56515    0.89038    1.000
    Si5797   Si       0.95217    0.54938    0.93056    1.000
    N5798    N        0.98223    0.51472    0.93939    1.000
    N5799    N        0.96653    0.58425    0.95133    1.000
    Si5800   Si       0.93740    0.61748    0.95379    1.000
    N5801    N        0.93300    0.62660    0.99599    1.000
    N5802    N        0.96922    0.75910    0.96952    1.000
    N5803    N        0.93425    0.69885    0.97654    1.000
    N5804    N        0.93984    0.72189    0.91163    1.000
    Si5805   Si       0.97791    0.64721    0.89102    1.000
    N5806    N        0.95672    0.65311    0.93383    1.000
    N5807    N        0.95116    0.87147    0.04709    1.000
    N5808    N        0.95466    0.81928    0.00110    1.000
    Si5809   Si       0.93272    0.88512    0.08241    1.000
    Si5810   Si       0.99058    0.99703    0.09352    1.000
    N5811    N        0.96687    0.89068    0.10880    1.000
    N5812    N        0.95428    0.93368    0.03003    1.000
    N5813    N        0.94701    0.98236    0.09222    1.000
    Si5814   Si       0.98215    0.90058    0.03679    1.000
    Si5815   Si       0.95211    0.86787    0.21529    1.000
    N5816    N        0.95136    0.79706    0.15194    1.000
    Si5817   Si       0.97629    0.87584    0.14976    1.000
    N5818    N        0.93717    0.86219    0.16758    1.000
    Si5819   Si       0.98502    0.98438    0.22430    1.000
    N5820    N        0.98923    0.92172    0.15890    1.000
    N5821    N        0.96550    0.98767    0.18054    1.000
    N5822    N        0.94942    0.91093    0.21754    1.000
    N5823    N        0.95062    0.97168    0.24780    1.000
    N5824    N        0.97861    0.87279    0.33759    1.000
    N5825    N        0.97411    0.81205    0.31297    1.000
    Si5826   Si       0.98191    0.80978    0.26856    1.000
    N5827    N        0.97353    0.84604    0.25009    1.000
    N5828    N        0.95101    0.78218    0.25000    1.000
    Si5829   Si       0.93806    0.88385    0.34054    1.000
    N5830    N        0.94162    0.92629    0.32635    1.000
    N5831    N        0.97198    0.99001    0.35135    1.000
    Si5832   Si       0.95477    0.95000    0.35770    1.000
    Si5833   Si       0.94571    0.82068    0.44591    1.000
    N5834    N        0.97031    0.77879    0.37783    1.000
    Si5835   Si       0.94339    0.81105    0.38653    1.000
    N5836    N        0.97270    0.79950    0.47124    1.000
    N5837    N        0.96881    0.83785    0.41250    1.000
    N5838    N        0.97285    0.96148    0.42996    1.000
    N5839    N        0.98622    0.92500    0.37416    1.000
    Si5840   Si       0.94380    0.89569    0.46292    1.000
    N5841    N        0.98083    0.89546    0.44035    1.000
    N5842    N        0.95853    0.86208    0.57047    1.000
    Si5843   Si       0.96079    0.79529    0.51298    1.000
    Si5844   Si       0.95209    0.90386    0.58456    1.000
    N5845    N        0.95691    0.99132    0.57461    1.000
    N5846    N        0.95542    0.91119    0.50165    1.000
    Si5847   Si       0.94797    0.99765    0.61711    1.000
    N5848    N        0.98597    0.92411    0.56844    1.000
    N5849    N        0.95523    0.01340    0.49921    1.000
    N5850    N        0.95364    0.82855    0.62769    1.000
    Si5851   Si       0.95513    0.78594    0.64249    1.000
    N5852    N        0.96689    0.79953    0.68087    1.000
    Si5853   Si       0.97185    0.86573    0.64528    1.000
    N5854    N        0.96033    0.86667    0.68728    1.000
    Si5855   Si       0.95392    0.83017    0.70917    1.000
    N5856    N        0.97440    0.80707    0.74097    1.000
    N5857    N        0.94764    0.93638    0.69123    1.000
    Si5858   Si       0.94012    0.97867    0.69989    1.000
    Si5859   Si       0.96679    0.90277    0.71190    1.000
    N5860    N        0.95391    0.90099    0.62618    1.000
    N5861    N        0.94193    0.98795    0.74187    1.000
    Si5862   Si       0.96599    0.80588    0.78493    1.000
    N5863    N        0.95362    0.76533    0.79164    1.000
    N5864    N        0.97156    0.84680    0.86703    1.000
    Si5865   Si       0.99620    0.85744    0.83074    1.000
    N5866    N        0.96244    0.96768    0.79959    1.000
    Si5867   Si       0.95742    0.92781    0.81889    1.000
    N5868    N        0.94295    0.91733    0.86124    1.000
    N5869    N        0.98063    0.89258    0.81478    1.000
    N5870    N        0.94996    0.88817    0.74815    1.000
    Si5871   Si       0.93534    0.78008    0.99059    1.000
    N5872    N        0.97798    0.78356    0.90890    1.000
    Si5873   Si       0.95048    0.88075    0.88523    1.000
    Si5874   Si       0.94781    0.76101    0.93070    1.000
    Si5875   Si       0.98037    0.93850    0.88056    1.000
    N5876    N        0.95751    0.96878    0.90040    1.000
    Si5877   Si       0.96527    0.99791    0.97206    1.000
    N5878    N        0.98687    0.90122    0.90139    1.000
    N5879    N        0.93632    0.96466    0.96878    1.000
