# CIF file generated by openbabel 3.1.1, see https://openbabel.org
data_I
_chemical_name_common '3.01-93.aims'
_cell_length_a 39.926
_cell_length_b 39.926
_cell_length_c 39.926
_cell_angle_alpha 90
_cell_angle_beta 90
_cell_angle_gamma 90
loop_
    _atom_site_label
    _atom_site_type_symbol
    _atom_site_fract_x
    _atom_site_fract_y
    _atom_site_fract_z
    _atom_site_occupancy
    Si0      Si       0.08352    0.11525    0.02726    1.000
    N1       N        0.04119    0.10284    0.03301    1.000
    N2       N        0.00650    0.01687    0.04195    1.000
    Si3      Si       0.02310    0.06187    0.03713    1.000
    N4       N        0.11511    0.08667    0.04366    1.000
    Si5      Si       0.21075    0.06605    0.01660    1.000
    N6       N        0.18673    0.07154    0.05133    1.000
    Si7      Si       0.00715    0.13055    0.02569    1.000
    Si8      Si       0.06501    0.18663    0.02699    1.000
    N9       N        0.02818    0.16560    0.01301    1.000
    N10      N        0.09430    0.15541    0.03844    1.000
    N11      N        0.01095    0.22989    0.00072    1.000
    N12      N        0.21194    0.16481    0.03137    1.000
    Si13     Si       0.22826    0.19659    0.00691    1.000
    Si14     Si       0.23622    0.13539    0.01375    1.000
    Si15     Si       0.00414    0.11799    0.09428    1.000
    N16      N        0.10345    0.12580    0.10285    1.000
    N17      N        0.10611    0.05314    0.10283    1.000
    N18      N        0.05849    0.04426    0.06078    1.000
    N19      N        0.99499    0.08012    0.06919    1.000
    Si20     Si       0.10379    0.04716    0.05957    1.000
    Si21     Si       0.06230    0.04783    0.10649    1.000
    Si22     Si       0.19669    0.06162    0.09387    1.000
    N23      N        0.16308    0.08819    0.10539    1.000
    Si24     Si       0.15480    0.10006    0.06270    1.000
    N25      N        0.23681    0.07309    0.10851    1.000
    N26      N        0.18131    0.02317    0.11136    1.000
    Si27     Si       0.03506    0.18847    0.09680    1.000
    N28      N        0.05928    0.20539    0.06511    1.000
    Si29     Si       0.08753    0.22065    0.09467    1.000
    N30      N        0.03493    0.14754    0.10508    1.000
    N31      N        0.99634    0.20331    0.10542    1.000
    Si32     Si       0.23070    0.21453    0.10994    1.000
    N33      N        0.12550    0.20162    0.08772    1.000
    N34      N        0.22121    0.14136    0.10083    1.000
    Si35     Si       0.11973    0.15909    0.07496    1.000
    N36      N        0.15929    0.14186    0.06679    1.000
    Si37     Si       0.19674    0.16319    0.07247    1.000
    Si38     Si       0.15949    0.22876    0.09491    1.000
    N39      N        0.19495    0.20478    0.08985    1.000
    Si40     Si       0.00235    0.07367    0.14432    1.000
    Si41     Si       0.06385    0.12219    0.12375    1.000
    N42      N        0.04219    0.08453    0.12361    1.000
    N43      N        0.05494    0.01327    0.13214    1.000
    N44      N        0.13773    0.03485    0.16116    1.000
    Si45     Si       0.12337    0.09085    0.12308    1.000
    N46      N        0.12129    0.09704    0.16602    1.000
    Si47     Si       0.13822    0.02540    0.11951    1.000
    Si48     Si       0.05773    0.18307    0.16543    1.000
    N49      N        0.06421    0.20492    0.12734    1.000
    N50      N        0.07368    0.14444    0.16163    1.000
    N51      N        0.17412    0.14439    0.14768    1.000
    N52      N        0.23258    0.19277    0.14725    1.000
    N53      N        0.15081    0.24343    0.13630    1.000
    Si54     Si       0.21652    0.15213    0.14190    1.000
    Si55     Si       0.04913    0.07284    0.21152    1.000
    N56      N        0.06885    0.11051    0.21867    1.000
    N57      N        0.08147    0.04508    0.20287    1.000
    Si58     Si       0.99626    0.04128    0.20831    1.000
    N59      N        0.01609    0.07388    0.18461    1.000
    Si60     Si       0.09694    0.12569    0.19096    1.000
    Si61     Si       0.11903    0.06208    0.19005    1.000
    N62      N        0.19113    0.02231    0.20429    1.000
    N63      N        0.18901    0.10341    0.20520    1.000
    Si64     Si       0.18389    0.06458    0.22076    1.000
    Si65     Si       0.15917    0.11980    0.17888    1.000
    N66      N        0.14053    0.07104    0.22814    1.000
    Si67     Si       0.22231    0.13047    0.20796    1.000
    N68      N        0.07497    0.20367    0.20094    1.000
    N69      N        0.02099    0.17507    0.18829    1.000
    Si70     Si       0.10565    0.22441    0.22098    1.000
    Si71     Si       0.03601    0.19568    0.22672    1.000
    Si72     Si       0.98996    0.25018    0.20276    1.000
    N73      N        0.20342    0.17139    0.20621    1.000
    N74      N        0.20846    0.24219    0.18209    1.000
    Si75     Si       0.16306    0.17602    0.21668    1.000
    Si76     Si       0.16423    0.24452    0.17944    1.000
    N77      N        0.13286    0.14597    0.20462    1.000
    Si78     Si       0.22713    0.20265    0.18827    1.000
    N79      N        0.14513    0.21384    0.20185    1.000
    N80      N        0.10164    0.03627    0.27180    1.000
    N81      N        0.02327    0.10861    0.28078    1.000
    Si82     Si       0.05999    0.12291    0.26026    1.000
    Si83     Si       0.02901    0.06222    0.28263    1.000
    N84      N        0.02507    0.05086    0.24061    1.000
    N85      N        0.09698    0.10802    0.28058    1.000
    Si86     Si       0.09189    0.01879    0.23521    1.000
    Si87     Si       0.12200    0.07569    0.26747    1.000
    N88      N        0.20952    0.05362    0.25447    1.000
    Si89     Si       0.21526    0.00812    0.23742    1.000
    N90      N        0.04820    0.23113    0.25579    1.000
    N91      N        0.05421    0.16603    0.25645    1.000
    Si92     Si       0.07361    0.19695    0.28432    1.000
    N93      N        0.10903    0.21127    0.26144    1.000
    N94      N        0.22379    0.22184    0.26282    1.000
    Si95     Si       0.13596    0.18850    0.28842    1.000
    Si96     Si       0.19728    0.19471    0.28315    1.000
    N97      N        0.16652    0.17682    0.25946    1.000
    N98      N        0.05772    0.05996    0.31457    1.000
    Si99     Si       0.08743    0.03029    0.31353    1.000
    Si100    Si       0.00926    0.12226    0.32022    1.000
    N101     N        0.05129    0.12819    0.33441    1.000
    N102     N        0.00740    0.08419    0.34498    1.000
    Si103    Si       0.09319    0.13241    0.32072    1.000
    Si104    Si       0.21286    0.09799    0.34634    1.000
    N105     N        0.11619    0.04073    0.34410    1.000
    Si106    Si       0.14372    0.07496    0.33782    1.000
    N107     N        0.22303    0.08369    0.30580    1.000
    N108     N        0.19748    0.02288    0.32000    1.000
    N109     N        0.15382    0.07478    0.29648    1.000
    Si110    Si       0.19122    0.05496    0.29337    1.000
    N111     N        0.12220    0.11056    0.34531    1.000
    N112     N        0.05410    0.21790    0.31762    1.000
    N113     N        0.10192    0.17195    0.30833    1.000
    N114     N        0.99139    0.20610    0.29670    1.000
    Si115    Si       0.02312    0.23485    0.29004    1.000
    Si116    Si       0.22558    0.16985    0.34253    1.000
    N117     N        0.16538    0.20503    0.31294    1.000
    N118     N        0.22257    0.16464    0.30044    1.000
    N119     N        0.07654    0.08166    0.38326    1.000
    Si120    Si       0.10203    0.04667    0.38586    1.000
    Si121    Si       0.10606    0.11556    0.38754    1.000
    N122     N        0.02898    0.12711    0.40045    1.000
    N123     N        0.99867    0.01379    0.35600    1.000
    N124     N        0.07807    0.01202    0.39562    1.000
    Si125    Si       0.04947    0.08530    0.34907    1.000
    N126     N        0.18098    0.07297    0.36253    1.000
    Si127    Si       0.19994    0.02828    0.36303    1.000
    Si128    Si       0.16785    0.08772    0.40380    1.000
    N129     N        0.14538    0.12573    0.40658    1.000
    Si130    Si       0.04993    0.22770    0.35997    1.000
    Si131    Si       0.10614    0.19173    0.39304    1.000
    N132     N        0.03291    0.19326    0.38223    1.000
    Si133    Si       0.04563    0.15423    0.37171    1.000
    N134     N        0.08877    0.15395    0.37921    1.000
    N135     N        0.08838    0.22878    0.37998    1.000
    N136     N        0.01524    0.25429    0.35218    1.000
    N137     N        0.14994    0.25684    0.35242    1.000
    Si138    Si       0.17246    0.15542    0.38427    1.000
    N139     N        0.20937    0.20418    0.36576    1.000
    Si140    Si       0.17050    0.21902    0.35286    1.000
    N141     N        0.19746    0.13758    0.35452    1.000
    Si142    Si       0.21627    0.20512    0.40820    1.000
    N143     N        0.14658    0.19036    0.37643    1.000
    N144     N        0.03237    0.06788    0.43853    1.000
    Si145    Si       0.02425    0.02867    0.45423    1.000
    N146     N        0.08949    0.11769    0.43486    1.000
    Si147    Si       0.05468    0.09914    0.41872    1.000
    N148     N        0.98935    0.12267    0.46104    1.000
    N149     N        0.18806    0.03372    0.45198    1.000
    Si150    Si       0.15474    0.02166    0.42720    1.000
    N151     N        0.20096    0.09916    0.42842    1.000
    Si152    Si       0.20615    0.07245    0.46305    1.000
    N153     N        0.13583    0.05629    0.41018    1.000
    Si154    Si       0.01179    0.25633    0.45194    1.000
    N155     N        0.99502    0.23498    0.41932    1.000
    N156     N        0.03144    0.18118    0.45421    1.000
    N157     N        0.05299    0.24446    0.45159    1.000
    N158     N        0.10291    0.18756    0.43559    1.000
    Si159    Si       0.06815    0.20446    0.46038    1.000
    Si160    Si       0.00860    0.19412    0.41954    1.000
    Si161    Si       0.22088    0.13600    0.43764    1.000
    Si162    Si       0.12100    0.14674    0.44112    1.000
    N163     N        0.19595    0.23354    0.43531    1.000
    N164     N        0.19968    0.16588    0.41661    1.000
    N165     N        0.05407    0.02488    0.48438    1.000
    N166     N        0.02793    0.08657    0.51077    1.000
    Si167    Si       0.09931    0.01732    0.48203    1.000
    Si168    Si       0.00622    0.08437    0.47218    1.000
    Si169    Si       0.04297    0.04769    0.52363    1.000
    N170     N        0.11416    0.05672    0.48711    1.000
    Si171    Si       0.19756    0.01689    0.49167    1.000
    N172     N        0.17936    0.08950    0.49226    1.000
    Si173    Si       0.14778    0.06648    0.51218    1.000
    N174     N        0.23080    0.03606    0.51027    1.000
    Si175    Si       0.18218    0.13192    0.49328    1.000
    N176     N        0.16487    0.02713    0.51901    1.000
    N177     N        0.00171    0.24210    0.49261    1.000
    Si178    Si       0.00769    0.15782    0.48270    1.000
    N179     N        0.08276    0.19914    0.50013    1.000
    N180     N        0.03556    0.14956    0.51618    1.000
    Si181    Si       0.07104    0.17108    0.53189    1.000
    Si182    Si       0.11063    0.23203    0.51017    1.000
    N183     N        0.22198    0.21910    0.49484    1.000
    N184     N        0.15140    0.21260    0.50329    1.000
    Si185    Si       0.14144    0.17190    0.51188    1.000
    N186     N        0.14536    0.14756    0.47753    1.000
    N187     N        0.21550    0.15234    0.47815    1.000
    Si188    Si       0.18249    0.22852    0.47689    1.000
    N189     N        0.06546    0.05877    0.55817    1.000
    Si190    Si       0.01672    0.11881    0.53980    1.000
    N191     N        0.00580    0.03051    0.53838    1.000
    Si192    Si       0.10782    0.06537    0.57180    1.000
    N193     N        0.03475    0.12012    0.57862    1.000
    N194     N        0.13426    0.08668    0.54714    1.000
    N195     N        0.12684    0.02712    0.58108    1.000
    N196     N        0.22024    0.01161    0.57613    1.000
    Si197    Si       0.14359    0.12787    0.55831    1.000
    N198     N        0.10263    0.24247    0.55318    1.000
    N199     N        0.05740    0.18799    0.56934    1.000
    N200     N        0.11210    0.15605    0.54039    1.000
    N201     N        0.03446    0.25950    0.55949    1.000
    N202     N        0.99293    0.17292    0.58246    1.000
    Si203    Si       0.08498    0.21603    0.58586    1.000
    N204     N        0.22872    0.13358    0.58155    1.000
    N205     N        0.17583    0.15092    0.53267    1.000
    N206     N        0.18836    0.19817    0.58369    1.000
    Si207    Si       0.20858    0.16561    0.55766    1.000
    N208     N        0.04211    0.05424    0.62584    1.000
    N209     N        0.09384    0.08968    0.60641    1.000
    Si210    Si       0.00401    0.03360    0.61848    1.000
    Si211    Si       0.05243    0.08215    0.59344    1.000
    N212     N        0.20684    0.07227    0.61155    1.000
    Si213    Si       0.19841    0.11596    0.60913    1.000
    N214     N        0.17242    0.02231    0.63683    1.000
    Si215    Si       0.13262    0.01159    0.62119    1.000
    Si216    Si       0.23740    0.04865    0.59176    1.000
    Si217    Si       0.18149    0.06252    0.64614    1.000
    Si218    Si       0.03174    0.16120    0.59589    1.000
    N219     N        0.05749    0.17364    0.63119    1.000
    N220     N        0.07300    0.24040    0.62039    1.000
    Si221    Si       0.11092    0.24776    0.63998    1.000
    Si222    Si       0.15642    0.17884    0.60606    1.000
    Si223    Si       0.19929    0.23970    0.58908    1.000
    N224     N        0.16292    0.13635    0.59651    1.000
    N225     N        0.19972    0.24252    0.63775    1.000
    N226     N        0.11740    0.19462    0.60660    1.000
    N227     N        0.08690    0.08104    0.67739    1.000
    Si228    Si       0.06840    0.04181    0.66086    1.000
    N229     N        0.03666    0.03450    0.68859    1.000
    N230     N        0.10333    0.01755    0.65720    1.000
    Si231    Si       0.99345    0.12425    0.68274    1.000
    Si232    Si       0.10894    0.10132    0.64413    1.000
    N233     N        0.19343    0.05907    0.68941    1.000
    Si234    Si       0.22973    0.03698    0.69866    1.000
    N235     N        0.20623    0.12598    0.65076    1.000
    N236     N        0.14935    0.09185    0.65004    1.000
    Si237    Si       0.04336    0.25281    0.65445    1.000
    Si238    Si       0.02851    0.17891    0.66581    1.000
    N239     N        0.01364    0.22043    0.65999    1.000
    N240     N        0.06501    0.17061    0.69296    1.000
    N241     N        0.00017    0.15000    0.64423    1.000
    Si242    Si       0.10356    0.15251    0.70217    1.000
    Si243    Si       0.09689    0.18252    0.64505    1.000
    N244     N        0.18169    0.21330    0.70205    1.000
    Si245    Si       0.20053    0.20642    0.66331    1.000
    N246     N        0.16983    0.17714    0.64786    1.000
    N247     N        0.11255    0.21478    0.66850    1.000
    N248     N        0.11537    0.14342    0.66176    1.000
    Si249    Si       0.16535    0.13462    0.66386    1.000
    Si250    Si       0.13888    0.21410    0.70271    1.000
    Si251    Si       0.09674    0.08463    0.72047    1.000
    N252     N        0.06655    0.06371    0.74278    1.000
    Si253    Si       0.03124    0.06564    0.71911    1.000
    N254     N        0.08460    0.12505    0.73215    1.000
    N255     N        0.00088    0.05195    0.74900    1.000
    N256     N        0.02558    0.10707    0.70765    1.000
    N257     N        0.13560    0.06521    0.73247    1.000
    Si258    Si       0.17370    0.08502    0.71774    1.000
    N259     N        0.19555    0.08360    0.75418    1.000
    N260     N        0.23475    0.02383    0.73890    1.000
    N261     N        0.16795    0.12516    0.70527    1.000
    Si262    Si       0.04354    0.14552    0.72268    1.000
    N263     N        0.02080    0.23787    0.75594    1.000
    N264     N        0.00679    0.16517    0.70609    1.000
    N265     N        0.20764    0.25851    0.74828    1.000
    Si266    Si       0.16322    0.15112    0.73807    1.000
    Si267    Si       0.19925    0.21239    0.74372    1.000
    N268     N        0.12778    0.17799    0.72835    1.000
    N269     N        0.12609    0.25160    0.72376    1.000
    N270     N        0.19696    0.17069    0.75459    1.000
    N271     N        0.06590    0.11844    0.80105    1.000
    N272     N        0.99921    0.12195    0.78118    1.000
    Si273    Si       0.07098    0.03413    0.77415    1.000
    N274     N        0.06181    0.04728    0.81402    1.000
    N275     N        0.10739    0.01326    0.77502    1.000
    Si276    Si       0.09878    0.13435    0.77459    1.000
    N277     N        0.22084    0.04553    0.80481    1.000
    Si278    Si       0.16772    0.09937    0.78612    1.000
    N279     N        0.14580    0.06578    0.80090    1.000
    Si280    Si       0.14275    0.03666    0.76490    1.000
    Si281    Si       0.23228    0.05887    0.76597    1.000
    N282     N        0.23632    0.13540    0.80501    1.000
    N283     N        0.14112    0.12421    0.76479    1.000
    Si284    Si       0.03195    0.14495    0.79776    1.000
    Si285    Si       0.04964    0.21047    0.77176    1.000
    N286     N        0.04964    0.20814    0.81523    1.000
    N287     N        0.09083    0.22677    0.77048    1.000
    Si288    Si       0.08095    0.24010    0.81817    1.000
    N289     N        0.04476    0.16780    0.76175    1.000
    Si290    Si       0.12965    0.25636    0.76679    1.000
    N291     N        0.11137    0.16865    0.80012    1.000
    N292     N        0.15861    0.21896    0.77356    1.000
    Si293    Si       0.23252    0.17001    0.78008    1.000
    N294     N        0.22012    0.20820    0.80066    1.000
    Si295    Si       0.12204    0.19555    0.76754    1.000
    Si296    Si       0.18175    0.22442    0.81039    1.000
    N297     N        0.03301    0.08481    0.86222    1.000
    N298     N        0.10051    0.09133    0.85029    1.000
    Si299    Si       0.06326    0.08803    0.83015    1.000
    Si300    Si       0.01217    0.12159    0.87143    1.000
    Si301    Si       0.05086    0.01661    0.84076    1.000
    Si302    Si       0.21944    0.04829    0.84669    1.000
    Si303    Si       0.13109    0.06255    0.84226    1.000
    N304     N        0.22290    0.08735    0.86128    1.000
    N305     N        0.13253    0.01965    0.84353    1.000
    Si306    Si       0.21394    0.12695    0.84076    1.000
    N307     N        0.19454    0.02545    0.87709    1.000
    N308     N        0.17422    0.12833    0.82014    1.000
    N309     N        0.01942    0.15490    0.83896    1.000
    Si310    Si       0.02536    0.19659    0.84920    1.000
    N311     N        0.00024    0.23320    0.84836    1.000
    N312     N        0.09698    0.23322    0.85793    1.000
    N313     N        0.15935    0.20348    0.84084    1.000
    Si314    Si       0.17037    0.18113    0.87820    1.000
    N315     N        0.20467    0.15753    0.87158    1.000
    N316     N        0.13605    0.15015    0.87114    1.000
    N317     N        0.23588    0.22051    0.86898    1.000
    Si318    Si       0.14425    0.15996    0.82766    1.000
    Si319    Si       0.13810    0.24472    0.84836    1.000
    Si320    Si       0.03787    0.06000    0.89810    1.000
    N321     N        0.00334    0.03850    0.91299    1.000
    N322     N        0.10360    0.11642    0.92031    1.000
    N323     N        0.05445    0.07341    0.93608    1.000
    Si324    Si       0.06176    0.11751    0.93862    1.000
    N325     N        0.02713    0.13021    0.91060    1.000
    N326     N        0.06173    0.02924    0.88111    1.000
    N327     N        0.15373    0.03208    0.93343    1.000
    Si328    Si       0.17605    0.05532    0.90400    1.000
    N329     N        0.20616    0.07920    0.92540    1.000
    Si330    Si       0.12187    0.11046    0.88271    1.000
    N331     N        0.15167    0.07837    0.87859    1.000
    Si332    Si       0.07341    0.22551    0.89381    1.000
    Si333    Si       0.03294    0.17187    0.92402    1.000
    N334     N        0.09956    0.21520    0.92501    1.000
    N335     N        0.04337    0.19433    0.88940    1.000
    Si336    Si       0.13830    0.23364    0.92280    1.000
    Si337    Si       0.22943    0.15998    0.90923    1.000
    N338     N        0.16700    0.20171    0.91592    1.000
    Si339    Si       0.06948    0.06322    0.97634    1.000
    N340     N        0.08538    0.10768    0.98232    1.000
    Si341    Si       0.00189    0.03713    0.95781    1.000
    N342     N        0.10605    0.04014    0.98372    1.000
    N343     N        0.03072    0.05117    0.99271    1.000
    Si344    Si       0.12060    0.12107    0.95839    1.000
    N345     N        0.15407    0.09652    0.97011    1.000
    Si346    Si       0.19530    0.10722    0.95673    1.000
    Si347    Si       0.14900    0.05102    0.97259    1.000
    N348     N        0.18829    0.03723    0.99165    1.000
    N349     N        0.21990    0.10267    0.99209    1.000
    Si350    Si       0.09599    0.18897    0.95981    1.000
    N351     N        0.06508    0.16104    0.94895    1.000
    N352     N        0.99926    0.18698    0.94536    1.000
    Si353    Si       0.99770    0.19090    0.98947    1.000
    Si354    Si       0.10419    0.24775    0.99152    1.000
    N355     N        0.08621    0.20939    0.99800    1.000
    N356     N        0.13255    0.16297    0.96396    1.000
    N357     N        0.19792    0.14749    0.93853    1.000
    Si358    Si       0.17228    0.17797    0.95476    1.000
    N359     N        0.19749    0.20620    0.97951    1.000
    Si360    Si       0.18310    0.24573    0.97112    1.000
    N361     N        0.13987    0.24110    0.96583    1.000
    Si362    Si       0.09047    0.35551    0.04211    1.000
    N363     N        0.07178    0.33424    0.00821    1.000
    Si364    Si       0.05239    0.29738    0.00712    1.000
    N365     N        0.99549    0.37118    0.03710    1.000
    N366     N        0.00749    0.30462    0.01012    1.000
    N367     N        0.05337    0.28231    0.04775    1.000
    Si368    Si       0.01275    0.29638    0.05511    1.000
    N369     N        0.12061    0.26917    0.02623    1.000
    Si370    Si       0.16220    0.28304    0.03265    1.000
    N371     N        0.16288    0.32588    0.03086    1.000
    N372     N        0.19266    0.27037    0.00483    1.000
    N373     N        0.12543    0.37977    0.02738    1.000
    N374     N        0.23251    0.29701    0.05193    1.000
    Si375    Si       0.23429    0.27396    0.01412    1.000
    Si376    Si       0.14670    0.35337    0.99784    1.000
    Si377    Si       0.05104    0.50592    0.02371    1.000
    N378     N        0.01486    0.48709    0.01198    1.000
    Si379    Si       0.03272    0.39629    0.03516    1.000
    Si380    Si       0.99383    0.45053    0.02141    1.000
    Si381    Si       0.11006    0.48252    0.02817    1.000
    N382     N        0.02132    0.43296    0.05376    1.000
    N383     N        0.07433    0.47843    0.05277    1.000
    N384     N        0.06115    0.39983    0.00172    1.000
    N385     N        0.18500    0.41859    0.02762    1.000
    N386     N        0.12555    0.44710    0.00790    1.000
    Si387    Si       0.14320    0.41874    0.03625    1.000
    N388     N        0.00291    0.32561    0.08532    1.000
    N389     N        0.10214    0.32477    0.07060    1.000
    Si390    Si       0.09571    0.28547    0.05808    1.000
    Si391    Si       0.99200    0.36677    0.08020    1.000
    N392     N        0.10136    0.26035    0.09236    1.000
    N393     N        0.05886    0.37717    0.06350    1.000
    Si394    Si       0.11414    0.34209    0.10675    1.000
    Si395    Si       0.17825    0.34177    0.06850    1.000
    N396     N        0.15101    0.36374    0.09619    1.000
    Si397    Si       0.20981    0.28343    0.08647    1.000
    N398     N        0.19334    0.31923    0.10431    1.000
    N399     N        0.17306    0.26578    0.07058    1.000
    N400     N        0.21340    0.36650    0.05907    1.000
    Si401    Si       0.05706    0.38988    0.10459    1.000
    Si402    Si       0.04873    0.45530    0.07749    1.000
    N403     N        0.03729    0.48356    0.10812    1.000
    N404     N        0.07160    0.43136    0.10933    1.000
    N405     N        0.19639    0.49352    0.09371    1.000
    Si406    Si       0.16742    0.40364    0.10807    1.000
    N407     N        0.13873    0.42719    0.07852    1.000
    N408     N        0.12587    0.48056    0.11391    1.000
    Si409    Si       0.15423    0.50449    0.09118    1.000
    Si410    Si       0.21774    0.41051    0.05667    1.000
    N411     N        0.20411    0.42671    0.09645    1.000
    Si412    Si       0.00691    0.31315    0.12793    1.000
    N413     N        0.03559    0.31986    0.15804    1.000
    N414     N        0.08300    0.36441    0.12741    1.000
    N415     N        0.08649    0.27197    0.16141    1.000
    Si416    Si       0.04485    0.27632    0.16243    1.000
    Si417    Si       0.06424    0.35069    0.16316    1.000
    N418     N        0.01470    0.27110    0.12864    1.000
    Si419    Si       0.11882    0.27277    0.13023    1.000
    N420     N        0.13250    0.31348    0.13125    1.000
    Si421    Si       0.17104    0.34111    0.13643    1.000
    Si422    Si       0.23014    0.27208    0.15890    1.000
    N423     N        0.19576    0.37958    0.13607    1.000
    N424     N        0.21260    0.31009    0.17435    1.000
    N425     N        0.22534    0.25919    0.11810    1.000
    Si426    Si       0.01348    0.39689    0.15664    1.000
    Si427    Si       0.05047    0.45809    0.14044    1.000
    N428     N        0.08257    0.47570    0.16331    1.000
    N429     N        0.01789    0.43990    0.16096    1.000
    N430     N        0.01599    0.38431    0.11607    1.000
    Si431    Si       0.11065    0.50471    0.14726    1.000
    N432     N        0.13998    0.41574    0.14224    1.000
    N433     N        0.20330    0.47461    0.16186    1.000
    Si434    Si       0.23632    0.38739    0.14233    1.000
    Si435    Si       0.21342    0.46295    0.11973    1.000
    Si436    Si       0.11558    0.43842    0.11270    1.000
    N437     N        0.08866    0.33393    0.19646    1.000
    N438     N        0.03031    0.26484    0.19895    1.000
    Si439    Si       0.10850    0.29430    0.19435    1.000
    N440     N        0.10037    0.26770    0.22830    1.000
    N441     N        0.05006    0.38670    0.17997    1.000
    N442     N        0.15278    0.28608    0.19255    1.000
    Si443    Si       0.17822    0.31947    0.19942    1.000
    N444     N        0.15674    0.35327    0.17765    1.000
    N445     N        0.01878    0.49721    0.20488    1.000
    Si446    Si       0.07029    0.40311    0.21512    1.000
    Si447    Si       0.01769    0.45390    0.20205    1.000
    Si448    Si       0.07720    0.48353    0.20718    1.000
    N449     N        0.05649    0.44618    0.21994    1.000
    Si450    Si       0.13921    0.43991    0.22664    1.000
    N451     N        0.11311    0.40621    0.20862    1.000
    N452     N        0.17205    0.42488    0.20066    1.000
    N453     N        0.11827    0.47762    0.22240    1.000
    N454     N        0.22621    0.45352    0.22785    1.000
    Si455    Si       0.14625    0.39734    0.18068    1.000
    N456     N        0.18330    0.50739    0.22011    1.000
    Si457    Si       0.21027    0.44229    0.18962    1.000
    N458     N        0.05330    0.30894    0.25003    1.000
    Si459    Si       0.08284    0.34033    0.23890    1.000
    N460     N        0.00369    0.27323    0.28349    1.000
    N461     N        0.06210    0.37702    0.24975    1.000
    Si462    Si       0.02883    0.31213    0.28355    1.000
    Si463    Si       0.05570    0.26802    0.23379    1.000
    N464     N        0.00765    0.35005    0.28348    1.000
    N465     N        0.16442    0.26566    0.26784    1.000
    N466     N        0.12219    0.32937    0.25459    1.000
    Si467    Si       0.15855    0.34671    0.26954    1.000
    N468     N        0.18807    0.33693    0.23851    1.000
    Si469    Si       0.12470    0.28549    0.25985    1.000
    Si470    Si       0.22828    0.33030    0.25320    1.000
    N471     N        0.23667    0.28950    0.26471    1.000
    Si472    Si       0.20611    0.25914    0.27402    1.000
    Si473    Si       0.03560    0.38325    0.28423    1.000
    N474     N        0.21254    0.49525    0.28468    1.000
    N475     N        0.16366    0.45108    0.26164    1.000
    Si476    Si       0.19746    0.47768    0.24870    1.000
    N477     N        0.05020    0.31018    0.32154    1.000
    Si478    Si       0.09316    0.31027    0.32735    1.000
    N479     N        0.10707    0.35142    0.32522    1.000
    Si480    Si       0.08148    0.38043    0.34619    1.000
    N481     N        0.11535    0.28198    0.30281    1.000
    N482     N        0.16917    0.32096    0.30649    1.000
    Si483    Si       0.20124    0.34248    0.32530    1.000
    Si484    Si       0.15948    0.27768    0.31210    1.000
    Si485    Si       0.14241    0.37644    0.33224    1.000
    Si486    Si       0.23402    0.27234    0.34328    1.000
    N487     N        0.20332    0.26033    0.31677    1.000
    N488     N        0.22905    0.35311    0.29157    1.000
    N489     N        0.23184    0.31752    0.34468    1.000
    Si490    Si       0.00187    0.49978    0.31474    1.000
    N491     N        0.05444    0.39981    0.32105    1.000
    Si492    Si       0.02407    0.43138    0.32559    1.000
    N493     N        0.03403    0.47166    0.31519    1.000
    N494     N        0.10306    0.50392    0.30836    1.000
    N495     N        0.00255    0.41460    0.29133    1.000
    Si496    Si       0.05944    0.50632    0.30319    1.000
    N497     N        0.23868    0.47081    0.35000    1.000
    N498     N        0.21977    0.42631    0.29778    1.000
    Si499    Si       0.23658    0.46464    0.30733    1.000
    Si500    Si       0.17547    0.42722    0.29662    1.000
    Si501    Si       0.13607    0.48296    0.32926    1.000
    N502     N        0.16756    0.45241    0.33075    1.000
    N503     N        0.15926    0.38696    0.29254    1.000
    N504     N        0.07433    0.35913    0.38180    1.000
    N505     N        0.09823    0.29885    0.36978    1.000
    N506     N        0.02966    0.30629    0.39278    1.000
    Si507    Si       0.07240    0.31880    0.39772    1.000
    Si508    Si       0.01970    0.29680    0.35044    1.000
    Si509    Si       0.11689    0.26059    0.38102    1.000
    N510     N        0.22925    0.36315    0.39797    1.000
    N511     N        0.18080    0.37080    0.35276    1.000
    Si512    Si       0.23272    0.32002    0.39053    1.000
    N513     N        0.23136    0.26919    0.38555    1.000
    Si514    Si       0.08613    0.50634    0.38215    1.000
    N515     N        0.06486    0.42556    0.39639    1.000
    Si516    Si       0.03303    0.45451    0.39320    1.000
    N517     N        0.04368    0.49551    0.38234    1.000
    N518     N        0.00560    0.43267    0.36410    1.000
    Si519    Si       0.10591    0.43514    0.38443    1.000
    N520     N        0.11100    0.47496    0.36635    1.000
    N521     N        0.11673    0.40732    0.35297    1.000
    Si522    Si       0.19446    0.46435    0.36258    1.000
    N523     N        0.18449    0.50232    0.38360    1.000
    Si524    Si       0.19205    0.38830    0.38966    1.000
    N525     N        0.19680    0.43282    0.39145    1.000
    N526     N        0.08133    0.31317    0.44137    1.000
    N527     N        0.02638    0.36674    0.43198    1.000
    Si528    Si       0.00595    0.32680    0.42157    1.000
    N529     N        0.00067    0.29855    0.45316    1.000
    Si530    Si       0.10725    0.34568    0.45755    1.000
    N531     N        0.10090    0.38021    0.43646    1.000
    Si532    Si       0.21759    0.26965    0.42548    1.000
    Si533    Si       0.18497    0.34104    0.44582    1.000
    N534     N        0.20204    0.30984    0.42264    1.000
    N535     N        0.14582    0.32497    0.45778    1.000
    Si536    Si       0.14339    0.28149    0.45905    1.000
    N537     N        0.13598    0.26652    0.42056    1.000
    N538     N        0.16980    0.37978    0.42750    1.000
    Si539    Si       0.06323    0.38516    0.41567    1.000
    Si540    Si       0.99598    0.38836    0.45477    1.000
    N541     N        0.01213    0.46929    0.42826    1.000
    N542     N        0.09309    0.50935    0.42433    1.000
    N543     N        0.15801    0.50014    0.44953    1.000
    N544     N        0.23135    0.48262    0.43020    1.000
    Si545    Si       0.13726    0.40470    0.44290    1.000
    Si546    Si       0.12079    0.48139    0.44491    1.000
    N547     N        0.23417    0.40857    0.44610    1.000
    Si548    Si       0.19485    0.50607    0.42586    1.000
    Si549    Si       0.22941    0.44131    0.41915    1.000
    N550     N        0.12813    0.44322    0.42098    1.000
    N551     N        0.09766    0.35141    0.49837    1.000
    N552     N        0.05593    0.28788    0.50779    1.000
    Si553    Si       0.01751    0.27278    0.52103    1.000
    N554     N        0.10948    0.26288    0.48083    1.000
    Si555    Si       0.07367    0.28084    0.46786    1.000
    Si556    Si       0.07664    0.37710    0.52658    1.000
    N557     N        0.21749    0.34795    0.47771    1.000
    N558     N        0.17560    0.27105    0.48529    1.000
    N559     N        0.22976    0.28941    0.51829    1.000
    Si560    Si       0.18601    0.29166    0.52358    1.000
    Si561    Si       0.02948    0.41994    0.51917    1.000
    Si562    Si       0.06419    0.49711    0.50013    1.000
    N563     N        0.02733    0.47612    0.49777    1.000
    N564     N        0.10040    0.47708    0.48499    1.000
    N565     N        0.07437    0.42039    0.51658    1.000
    N566     N        0.00759    0.41813    0.48307    1.000
    Si567    Si       0.11033    0.43983    0.50632    1.000
    Si568    Si       0.00094    0.45991    0.46797    1.000
    N569     N        0.18648    0.46696    0.52263    1.000
    N570     N        0.19846    0.40019    0.51100    1.000
    N571     N        0.14204    0.42112    0.48200    1.000
    Si572    Si       0.23080    0.39036    0.48390    1.000
    Si573    Si       0.16919    0.42851    0.51606    1.000
    Si574    Si       0.22621    0.48544    0.52712    1.000
    Si575    Si       0.02000    0.36335    0.57379    1.000
    Si576    Si       0.07580    0.28060    0.54690    1.000
    N577     N        0.00478    0.32229    0.57591    1.000
    N578     N        0.03460    0.37580    0.53325    1.000
    N579     N        0.10939    0.36836    0.55792    1.000
    N580     N        0.07177    0.30565    0.58320    1.000
    N581     N        0.11749    0.29999    0.54102    1.000
    N582     N        0.17807    0.26422    0.55848    1.000
    Si583    Si       0.13518    0.26747    0.56663    1.000
    Si584    Si       0.19667    0.36734    0.54090    1.000
    Si585    Si       0.12768    0.33874    0.52901    1.000
    N586     N        0.17046    0.33339    0.53032    1.000
    N587     N        0.23816    0.35307    0.54054    1.000
    N588     N        0.01715    0.44564    0.55379    1.000
    Si589    Si       0.02109    0.48879    0.54653    1.000
    N590     N        0.06219    0.50095    0.54421    1.000
    Si591    Si       0.13783    0.39954    0.57204    1.000
    Si592    Si       0.16824    0.48428    0.55878    1.000
    N593     N        0.17939    0.38635    0.57414    1.000
    N594     N        0.13563    0.43064    0.54216    1.000
    N595     N        0.01940    0.28331    0.63325    1.000
    N596     N        0.05371    0.36799    0.60127    1.000
    Si597    Si       0.03105    0.29045    0.59245    1.000
    Si598    Si       0.09023    0.34594    0.59099    1.000
    N599     N        0.12267    0.34279    0.62077    1.000
    Si600    Si       0.13684    0.30432    0.63533    1.000
    N601     N        0.13396    0.26735    0.60791    1.000
    N602     N        0.23722    0.36488    0.60590    1.000
    Si603    Si       0.12596    0.38049    0.64201    1.000
    Si604    Si       0.04616    0.39023    0.63685    1.000
    N605     N        0.09939    0.48901    0.60239    1.000
    N606     N        0.02954    0.42974    0.62374    1.000
    Si607    Si       0.00104    0.43125    0.59163    1.000
    N608     N        0.01664    0.50620    0.59219    1.000
    Si609    Si       0.01465    0.51159    0.63583    1.000
    N610     N        0.98991    0.38967    0.58841    1.000
    Si611    Si       0.12598    0.45700    0.61865    1.000
    N612     N        0.21833    0.49643    0.63773    1.000
    N613     N        0.16372    0.46849    0.59824    1.000
    N614     N        0.22156    0.43030    0.61231    1.000
    N615     N        0.12863    0.41497    0.61259    1.000
    Si616    Si       0.20308    0.39026    0.61023    1.000
    Si617    Si       0.19469    0.46140    0.62848    1.000
    N618     N        0.01575    0.37114    0.66129    1.000
    N619     N        0.05401    0.26700    0.69515    1.000
    N620     N        0.11019    0.28390    0.66305    1.000
    Si621    Si       0.10022    0.38345    0.69828    1.000
    N622     N        0.13515    0.36223    0.68485    1.000
    Si623    Si       0.17880    0.34633    0.67656    1.000
    Si624    Si       0.21045    0.27954    0.65954    1.000
    N625     N        0.22351    0.34366    0.68283    1.000
    N626     N        0.17632    0.30761    0.65166    1.000
    N627     N        0.18098    0.38102    0.64694    1.000
    N628     N        0.98861    0.48436    0.66270    1.000
    N629     N        0.08590    0.39214    0.65746    1.000
    N630     N        0.04855    0.48988    0.65329    1.000
    Si631    Si       0.02352    0.45434    0.65764    1.000
    N632     N        0.02731    0.42850    0.69060    1.000
    Si633    Si       0.08859    0.50141    0.64544    1.000
    N634     N        0.23696    0.41908    0.68024    1.000
    N635     N        0.11506    0.46665    0.65902    1.000
    N636     N        0.18069    0.44660    0.66696    1.000
    Si637    Si       0.19445    0.40903    0.67818    1.000
    Si638    Si       0.11602    0.45722    0.69868    1.000
    Si639    Si       0.23550    0.45661    0.70129    1.000
    N640     N        0.09879    0.31381    0.72606    1.000
    N641     N        0.02509    0.31679    0.73276    1.000
    Si642    Si       0.06504    0.33415    0.74184    1.000
    N643     N        0.06316    0.37069    0.71758    1.000
    Si644    Si       0.02360    0.27448    0.72584    1.000
    N645     N        0.99009    0.37972    0.72126    1.000
    Si646    Si       0.09623    0.27646    0.70470    1.000
    N647     N        0.22811    0.32171    0.75283    1.000
    Si648    Si       0.13921    0.32750    0.73453    1.000
    N649     N        0.17473    0.31889    0.71553    1.000
    Si650    Si       0.19185    0.29807    0.75134    1.000
    N651     N        0.13384    0.36450    0.75765    1.000
    Si652    Si       0.03878    0.45187    0.72471    1.000
    N653     N        0.01082    0.48406    0.72876    1.000
    N654     N        0.07761    0.46739    0.71737    1.000
    Si655    Si       0.09557    0.50220    0.73694    1.000
    Si656    Si       0.02651    0.38423    0.70085    1.000
    N657     N        0.18640    0.39552    0.72096    1.000
    N658     N        0.13642    0.48723    0.72392    1.000
    Si659    Si       0.22064    0.40373    0.74678    1.000
    Si660    Si       0.15024    0.40166    0.74344    1.000
    N661     N        0.23148    0.44411    0.74235    1.000
    N662     N        0.12051    0.41731    0.71531    1.000
    N663     N        0.21432    0.49579    0.70446    1.000
    N664     N        0.07532    0.33585    0.78292    1.000
    Si665    Si       0.11248    0.35687    0.79466    1.000
    N666     N        0.12140    0.26227    0.81099    1.000
    Si667    Si       0.15447    0.29867    0.81095    1.000
    Si668    Si       0.22828    0.34584    0.79046    1.000
    N669     N        0.15243    0.29598    0.76797    1.000
    N670     N        0.19609    0.32182    0.81259    1.000
    N671     N        0.98735    0.47043    0.79407    1.000
    Si672    Si       0.02507    0.44884    0.80011    1.000
    N673     N        0.10716    0.49365    0.77747    1.000
    Si674    Si       0.09442    0.48814    0.81725    1.000
    N675     N        0.03904    0.43325    0.76311    1.000
    N676     N        0.22907    0.45783    0.80726    1.000
    Si677    Si       0.14796    0.48005    0.76583    1.000
    N678     N        0.21701    0.38865    0.78974    1.000
    Si679    Si       0.20862    0.49768    0.81199    1.000
    N680     N        0.18355    0.50443    0.77527    1.000
    N681     N        0.14775    0.43495    0.77389    1.000
    Si682    Si       0.13609    0.42353    0.81381    1.000
    Si683    Si       0.01939    0.34058    0.85602    1.000
    N684     N        0.06147    0.34296    0.84771    1.000
    Si685    Si       0.01488    0.27059    0.83104    1.000
    N686     N        0.01056    0.29932    0.86307    1.000
    Si687    Si       0.09066    0.37776    0.85752    1.000
    N688     N        0.99102    0.35364    0.82687    1.000
    Si689    Si       0.08047    0.31315    0.82168    1.000
    N690     N        0.05601    0.27598    0.82005    1.000
    N691     N        0.12290    0.32601    0.82253    1.000
    N692     N        0.17893    0.26386    0.83032    1.000
    Si693    Si       0.21141    0.29094    0.84119    1.000
    N694     N        0.06933    0.41309    0.87492    1.000
    Si695    Si       0.04233    0.44358    0.86046    1.000
    N696     N        0.01503    0.42249    0.83183    1.000
    N697     N        0.05686    0.46773    0.82492    1.000
    N698     N        0.10986    0.39001    0.82139    1.000
    N699     N        0.17640    0.42607    0.83639    1.000
    N700     N        0.12218    0.45877    0.83654    1.000
    Si701    Si       0.21690    0.41872    0.82264    1.000
    Si702    Si       0.16152    0.46149    0.85486    1.000
    N703     N        0.18434    0.49654    0.84794    1.000
    N704     N        0.00835    0.36272    0.89114    1.000
    N705     N        0.09783    0.30355    0.92237    1.000
    Si706    Si       0.00956    0.27682    0.90102    1.000
    Si707    Si       0.02160    0.35110    0.92993    1.000
    N708     N        0.02456    0.30930    0.93187    1.000
    N709     N        0.10819    0.36880    0.89519    1.000
    Si710    Si       0.06327    0.28364    0.93855    1.000
    N711     N        0.04790    0.25604    0.90934    1.000
    Si712    Si       0.12098    0.33933    0.92215    1.000
    Si713    Si       0.17469    0.29068    0.90281    1.000
    N714     N        0.16281    0.32904    0.91786    1.000
    Si715    Si       0.23095    0.28595    0.92601    1.000
    N716     N        0.23035    0.32898    0.93677    1.000
    N717     N        0.14777    0.26152    0.88797    1.000
    N718     N        0.21399    0.29507    0.88417    1.000
    Si719    Si       0.19421    0.35341    0.93559    1.000
    N720     N        0.19199    0.26976    0.93786    1.000
    N721     N        0.02511    0.47477    0.88332    1.000
    Si722    Si       0.08645    0.40297    0.91711    1.000
    Si723    Si       0.03853    0.47692    0.92429    1.000
    N724     N        0.23643    0.44854    0.91418    1.000
    Si725    Si       0.16770    0.49068    0.92817    1.000
    Si726    Si       0.16403    0.42066    0.91993    1.000
    N727     N        0.16230    0.45689    0.89880    1.000
    N728     N        0.19550    0.39138    0.91175    1.000
    Si729    Si       0.23612    0.40729    0.89929    1.000
    N730     N        0.07310    0.27292    0.97900    1.000
    Si731    Si       0.07837    0.36650    0.97916    1.000
    N732     N        0.00066    0.36495    0.96568    1.000
    N733     N        0.05965    0.37565    0.94248    1.000
    N734     N        0.11761    0.35075    0.96675    1.000
    N735     N        0.17990    0.36868    0.97569    1.000
    Si736    Si       0.03788    0.41271    0.96207    1.000
    N737     N        0.00245    0.42712    0.98504    1.000
    Si738    Si       0.99265    0.50331    0.97751    1.000
    N739     N        0.05759    0.44040    0.93692    1.000
    N740     N        0.99967    0.48656    0.93916    1.000
    Si741    Si       0.22409    0.45639    0.95631    1.000
    N742     N        0.23841    0.47612    0.99314    1.000
    N743     N        0.17684    0.44018    0.95935    1.000
    Si744    Si       0.13315    0.44638    0.96552    1.000
    N745     N        0.23310    0.41396    0.97388    1.000
    N746     N        0.20628    0.49602    0.94399    1.000
    Si747    Si       0.19254    0.40857    0.98650    1.000
    N748     N        0.12825    0.48462    0.94892    1.000
    N749     N        0.12264    0.41597    0.93674    1.000
    N750     N        0.04279    0.54742    0.03219    1.000
    N751     N        0.09331    0.60483    0.01275    1.000
    Si752    Si       0.01023    0.56798    0.01406    1.000
    Si753    Si       0.05718    0.62543    0.02414    1.000
    N754     N        0.02422    0.60863    0.00111    1.000
    N755     N        0.08612    0.50507    0.00020    1.000
    Si756    Si       0.12168    0.59214    0.04332    1.000
    N757     N        0.15348    0.57395    0.02230    1.000
    Si758    Si       0.16237    0.53225    0.02623    1.000
    N759     N        0.22128    0.59576    0.01671    1.000
    N760     N        0.20398    0.52325    0.02902    1.000
    N761     N        0.14002    0.50596    0.04990    1.000
    N762     N        0.10365    0.72836    0.03227    1.000
    N763     N        0.05977    0.66906    0.02868    1.000
    N764     N        0.99859    0.68089    0.00021    1.000
    Si765    Si       0.07639    0.70120    0.05329    1.000
    N766     N        0.99372    0.74946    0.01221    1.000
    N767     N        0.21454    0.73771    0.03255    1.000
    N768     N        0.16199    0.69059    0.04167    1.000
    N769     N        0.02760    0.55225    0.09990    1.000
    N770     N        0.10013    0.56705    0.07198    1.000
    Si771    Si       0.05595    0.56898    0.06783    1.000
    N772     N        0.04849    0.61135    0.06314    1.000
    Si773    Si       0.03134    0.63106    0.09833    1.000
    Si774    Si       0.00694    0.51432    0.10652    1.000
    N775     N        0.99571    0.61145    0.11036    1.000
    Si776    Si       0.11929    0.56479    0.11124    1.000
    N777     N        0.22717    0.55141    0.08568    1.000
    N778     N        0.15729    0.54544    0.10439    1.000
    Si779    Si       0.15985    0.62368    0.10740    1.000
    N780     N        0.14208    0.62438    0.06610    1.000
    Si781    Si       0.22380    0.51309    0.06525    1.000
    Si782    Si       0.19863    0.55954    0.11648    1.000
    Si783    Si       0.07406    0.75660    0.10296    1.000
    N784     N        0.03796    0.67269    0.10596    1.000
    N785     N        0.10258    0.68300    0.08370    1.000
    N786     N        0.05105    0.72860    0.07554    1.000
    Si787    Si       0.01617    0.70841    0.09391    1.000
    Si788    Si       0.14212    0.66855    0.07209    1.000
    N789     N        0.16436    0.66656    0.10947    1.000
    N790     N        0.20236    0.72278    0.09704    1.000
    Si791    Si       0.18290    0.72582    0.05996    1.000
    Si792    Si       0.09252    0.61786    0.14957    1.000
    Si793    Si       0.01943    0.58163    0.13185    1.000
    N794     N        0.09080    0.54225    0.13685    1.000
    N795     N        0.05640    0.60724    0.12698    1.000
    N796     N        0.02818    0.56066    0.16822    1.000
    N797     N        0.20675    0.54835    0.15851    1.000
    N798     N        0.12671    0.60470    0.12848    1.000
    Si799    Si       0.23674    0.62286    0.11926    1.000
    N800     N        0.19726    0.60385    0.12004    1.000
    Si801    Si       0.08908    0.73653    0.17379    1.000
    Si802    Si       0.07796    0.68608    0.12025    1.000
    N803     N        0.07576    0.72612    0.13344    1.000
    N804     N        0.09183    0.66115    0.15469    1.000
    N805     N        0.19696    0.71586    0.15846    1.000
    Si806    Si       0.19908    0.68803    0.12455    1.000
    N807     N        0.23785    0.66680    0.12353    1.000
    Si808    Si       0.20969    0.75149    0.13026    1.000
    N809     N        0.08173    0.52713    0.20148    1.000
    N810     N        0.09044    0.59338    0.18567    1.000
    Si811    Si       0.10070    0.60964    0.22514    1.000
    Si812    Si       0.99534    0.53591    0.18587    1.000
    N813     N        0.00014    0.55147    0.22836    1.000
    Si814    Si       0.07018    0.55668    0.17284    1.000
    Si815    Si       0.13968    0.51371    0.21440    1.000
    N816     N        0.19906    0.61172    0.19161    1.000
    Si817    Si       0.22793    0.58298    0.17962    1.000
    Si818    Si       0.18910    0.51231    0.17549    1.000
    Si819    Si       0.17875    0.63374    0.22270    1.000
    N820     N        0.14521    0.51708    0.17233    1.000
    Si821    Si       0.09927    0.68034    0.19489    1.000
    N822     N        0.07102    0.71212    0.20484    1.000
    N823     N        0.09766    0.65264    0.22733    1.000
    N824     N        0.18765    0.73960    0.22024    1.000
    N825     N        0.12693    0.71411    0.18498    1.000
    N826     N        0.17458    0.67687    0.21947    1.000
    Si827    Si       0.17035    0.71144    0.19166    1.000
    Si828    Si       0.04188    0.60694    0.27238    1.000
    N829     N        0.07186    0.58639    0.24771    1.000
    N830     N        0.99737    0.60266    0.27181    1.000
    Si831    Si       0.08153    0.54576    0.24025    1.000
    N832     N        0.05816    0.51650    0.26072    1.000
    Si833    Si       0.01818    0.51661    0.24450    1.000
    Si834    Si       0.14543    0.57527    0.26380    1.000
    Si835    Si       0.22173    0.58669    0.25587    1.000
    N836     N        0.18692    0.56265    0.27193    1.000
    N837     N        0.12573    0.54365    0.24314    1.000
    N838     N        0.14344    0.60944    0.23570    1.000
    N839     N        0.20934    0.62950    0.25473    1.000
    N840     N        0.04520    0.64994    0.26999    1.000
    Si841    Si       0.00993    0.67407    0.27386    1.000
    N842     N        0.03112    0.71150    0.26520    1.000
    N843     N        0.09743    0.70670    0.27276    1.000
    Si844    Si       0.08631    0.66551    0.26855    1.000
    Si845    Si       0.06694    0.72644    0.24661    1.000
    N846     N        0.16643    0.72230    0.28512    1.000
    N847     N        0.22746    0.69897    0.25599    1.000
    Si848    Si       0.18617    0.70725    0.24803    1.000
    Si849    Si       0.23048    0.66196    0.27576    1.000
    N850     N        0.05538    0.59642    0.31363    1.000
    Si851    Si       0.02263    0.57395    0.33230    1.000
    N852     N        0.02761    0.53305    0.31926    1.000
    Si853    Si       0.09778    0.60771    0.31859    1.000
    Si854    Si       0.12026    0.54162    0.32421    1.000
    N855     N        0.12628    0.57783    0.30301    1.000
    N856     N        0.15905    0.52171    0.32678    1.000
    N857     N        0.21789    0.54918    0.33382    1.000
    Si858    Si       0.19348    0.53116    0.30044    1.000
    N859     N        0.23558    0.62168    0.34270    1.000
    N860     N        0.99952    0.72422    0.33500    1.000
    N861     N        0.10377    0.64574    0.30182    1.000
    Si862    Si       0.00931    0.73821    0.29386    1.000
    N863     N        0.22989    0.75216    0.29389    1.000
    Si864    Si       0.20735    0.65369    0.34503    1.000
    Si865    Si       0.20377    0.72058    0.30955    1.000
    Si866    Si       0.12586    0.72895    0.29984    1.000
    N867     N        0.21371    0.67912    0.31232    1.000
    N868     N        0.12554    0.70584    0.33776    1.000
    N869     N        0.16522    0.64308    0.34447    1.000
    Si870    Si       0.13173    0.66475    0.32916    1.000
    N871     N        0.04023    0.57723    0.37214    1.000
    Si872    Si       0.08235    0.57989    0.37768    1.000
    N873     N        0.09756    0.54259    0.36154    1.000
    N874     N        0.10922    0.61034    0.36156    1.000
    Si875    Si       0.15145    0.61307    0.37693    1.000
    N876     N        0.16648    0.57495    0.37501    1.000
    Si877    Si       0.18286    0.53892    0.35867    1.000
    Si878    Si       0.04016    0.73373    0.39445    1.000
    N879     N        0.07077    0.74297    0.36300    1.000
    N880     N        0.99705    0.72967    0.39906    1.000
    N881     N        0.05039    0.69053    0.39677    1.000
    N882     N        0.98723    0.65768    0.38098    1.000
    N883     N        0.19589    0.73147    0.35046    1.000
    N884     N        0.11822    0.71231    0.40568    1.000
    Si885    Si       0.11458    0.73492    0.36939    1.000
    Si886    Si       0.21485    0.71601    0.38580    1.000
    N887     N        0.21928    0.67323    0.38240    1.000
    Si888    Si       0.08705    0.54499    0.44741    1.000
    N889     N        0.02512    0.54683    0.43303    1.000
    Si890    Si       0.07453    0.61900    0.44032    1.000
    N891     N        0.08150    0.57949    0.42075    1.000
    N892     N        0.03535    0.62685    0.42427    1.000
    Si893    Si       0.02497    0.58435    0.41133    1.000
    Si894    Si       0.01382    0.50983    0.41077    1.000
    N895     N        0.19689    0.54843    0.43758    1.000
    Si896    Si       0.23232    0.57366    0.43261    1.000
    N897     N        0.17131    0.62699    0.41417    1.000
    Si898    Si       0.16254    0.54107    0.46472    1.000
    N899     N        0.12446    0.55966    0.46174    1.000
    N900     N        0.06800    0.69640    0.46160    1.000
    N901     N        0.10421    0.64735    0.42851    1.000
    Si902    Si       0.08641    0.68618    0.42255    1.000
    N903     N        0.00131    0.68311    0.44602    1.000
    Si904    Si       0.01841    0.66276    0.40952    1.000
    Si905    Si       0.21102    0.64515    0.41605    1.000
    N906     N        0.23886    0.72933    0.46475    1.000
    Si907    Si       0.14984    0.72055    0.43437    1.000
    N908     N        0.19105    0.71697    0.42138    1.000
    Si909    Si       0.14567    0.64274    0.44320    1.000
    Si910    Si       0.20086    0.69902    0.46334    1.000
    N911     N        0.15516    0.68323    0.45816    1.000
    N912     N        0.22585    0.66316    0.45238    1.000
    Si913    Si       0.04555    0.62041    0.51159    1.000
    N914     N        0.07851    0.60914    0.48173    1.000
    N915     N        0.02042    0.58738    0.50400    1.000
    N916     N        0.06108    0.53808    0.48205    1.000
    Si917    Si       0.01955    0.55362    0.47584    1.000
    Si918    Si       0.11752    0.59150    0.49008    1.000
    N919     N        0.17703    0.55048    0.50272    1.000
    Si920    Si       0.22019    0.55609    0.50213    1.000
    N921     N        0.14479    0.62361    0.48223    1.000
    N922     N        0.23603    0.58523    0.47406    1.000
    Si923    Si       0.02787    0.68966    0.47813    1.000
    N924     N        0.02849    0.73187    0.49427    1.000
    N925     N        0.02730    0.66084    0.51036    1.000
    Si926    Si       0.06410    0.74020    0.46760    1.000
    N927     N        0.09421    0.75627    0.49322    1.000
    Si928    Si       0.99433    0.75973    0.48679    1.000
    Si929    Si       0.21713    0.75495    0.49361    1.000
    Si930    Si       0.15865    0.65364    0.50846    1.000
    N931     N        0.17914    0.73640    0.49003    1.000
    N932     N        0.19538    0.67952    0.50826    1.000
    N933     N        0.06629    0.62114    0.55042    1.000
    Si934    Si       0.09580    0.59252    0.56650    1.000
    N935     N        0.00399    0.57353    0.58129    1.000
    Si936    Si       0.09316    0.51561    0.56937    1.000
    N937     N        0.20850    0.50660    0.56202    1.000
    Si938    Si       0.16905    0.61215    0.57550    1.000
    Si939    Si       0.15272    0.55163    0.53759    1.000
    Si940    Si       0.21363    0.54838    0.56956    1.000
    N941     N        0.17617    0.56910    0.57087    1.000
    N942     N        0.13379    0.51366    0.55113    1.000
    N943     N        0.11971    0.57814    0.53139    1.000
    N944     N        0.18111    0.63024    0.53870    1.000
    N945     N        0.23469    0.56983    0.53935    1.000
    N946     N        0.01252    0.72954    0.56963    1.000
    Si947    Si       0.04163    0.73556    0.53669    1.000
    N948     N        0.07930    0.72176    0.55159    1.000
    Si949    Si       0.99483    0.66601    0.54076    1.000
    N950     N        0.01420    0.65756    0.58039    1.000
    Si951    Si       0.10811    0.69355    0.56694    1.000
    N952     N        0.18931    0.72609    0.56213    1.000
    N953     N        0.23665    0.67545    0.56513    1.000
    Si954    Si       0.21949    0.65147    0.52870    1.000
    Si955    Si       0.15357    0.75108    0.57743    1.000
    N956     N        0.13946    0.74818    0.53661    1.000
    Si957    Si       0.23425    0.72155    0.56095    1.000
    N958     N        0.13567    0.68174    0.53493    1.000
    Si959    Si       0.16655    0.71384    0.52644    1.000
    N960     N        0.05473    0.60951    0.61732    1.000
    Si961    Si       0.04054    0.57149    0.60393    1.000
    N962     N        0.02406    0.55255    0.64256    1.000
    N963     N        0.07758    0.55569    0.58207    1.000
    N964     N        0.12669    0.61466    0.58789    1.000
    N965     N        0.23161    0.61432    0.59604    1.000
    Si966    Si       0.13572    0.63432    0.62736    1.000
    N967     N        0.08617    0.67098    0.59748    1.000
    Si968    Si       0.01999    0.73737    0.61190    1.000
    Si969    Si       0.09161    0.68582    0.63813    1.000
    Si970    Si       0.05599    0.64208    0.58775    1.000
    Si971    Si       0.22081    0.65480    0.60131    1.000
    N972     N        0.19145    0.71645    0.63608    1.000
    N973     N        0.17690    0.64939    0.60523    1.000
    N974     N        0.13407    0.71488    0.59525    1.000
    Si975    Si       0.16235    0.69048    0.61754    1.000
    Si976    Si       0.21181    0.75538    0.62291    1.000
    Si977    Si       0.01521    0.57413    0.68112    1.000
    Si978    Si       0.07292    0.61362    0.65660    1.000
    N979     N        0.05154    0.59455    0.68911    1.000
    N980     N        0.10063    0.53920    0.66022    1.000
    N981     N        0.11688    0.60506    0.65292    1.000
    Si982    Si       0.12880    0.56838    0.67332    1.000
    N983     N        0.16658    0.54658    0.67989    1.000
    N984     N        0.22436    0.56171    0.66288    1.000
    Si985    Si       0.20300    0.52225    0.67025    1.000
    Si986    Si       0.19895    0.57430    0.69512    1.000
    N987     N        0.06947    0.65466    0.66231    1.000
    Si988    Si       0.03239    0.67541    0.66907    1.000
    Si989    Si       0.05526    0.73375    0.67571    1.000
    N990     N        0.09212    0.72588    0.65319    1.000
    N991     N        0.99765    0.65555    0.65338    1.000
    N992     N        0.03301    0.70953    0.64128    1.000
    Si993    Si       0.21756    0.69630    0.66410    1.000
    Si994    Si       0.11763    0.74953    0.68097    1.000
    N995     N        0.19337    0.67353    0.69061    1.000
    Si996    Si       0.14924    0.67928    0.68939    1.000
    N997     N        0.14424    0.72164    0.69780    1.000
    N998     N        0.13610    0.67156    0.64810    1.000
    N999     N        0.06577    0.53301    0.72600    1.000
    Si1000   Si       0.07254    0.57577    0.72401    1.000
    Si1001   Si       0.02449    0.52423    0.73684    1.000
    N1002    N        0.00159    0.55055    0.71273    1.000
    N1003    N        0.11567    0.58321    0.71261    1.000
    N1004    N        0.21797    0.55570    0.73117    1.000
    Si1005   Si       0.14093    0.61586    0.72567    1.000
    Si1006   Si       0.21420    0.51456    0.74403    1.000
    N1007    N        0.17951    0.61009    0.70958    1.000
    Si1008   Si       0.10082    0.75153    0.75231    1.000
    Si1009   Si       0.04739    0.70344    0.74495    1.000
    N1010    N        0.02309    0.73908    0.75435    1.000
    N1011    N        0.08946    0.70852    0.75842    1.000
    N1012    N        0.04296    0.69998    0.70340    1.000
    Si1013   Si       0.11698    0.67691    0.76120    1.000
    N1014    N        0.20105    0.72189    0.74608    1.000
    Si1015   Si       0.17101    0.74432    0.72423    1.000
    Si1016   Si       0.20793    0.64459    0.72133    1.000
    N1017    N        0.13121    0.65945    0.72413    1.000
    N1018    N        0.19499    0.65435    0.76133    1.000
    Si1019   Si       0.03497    0.57060    0.78945    1.000
    N1020    N        0.02215    0.53075    0.77928    1.000
    Si1021   Si       0.10332    0.60317    0.78530    1.000
    N1022    N        0.99699    0.59170    0.79377    1.000
    N1023    N        0.06726    0.58547    0.76599    1.000
    Si1024   Si       0.98973    0.51271    0.80177    1.000
    N1025    N        0.21304    0.59339    0.78732    1.000
    Si1026   Si       0.18092    0.62390    0.78731    1.000
    N1027    N        0.14409    0.60579    0.76858    1.000
    N1028    N        0.23695    0.53337    0.81930    1.000
    N1029    N        0.03241    0.67901    0.77647    1.000
    Si1030   Si       0.06524    0.66847    0.80387    1.000
    N1031    N        0.09520    0.64598    0.78330    1.000
    Si1032   Si       0.99556    0.68953    0.79400    1.000
    N1033    N        0.14648    0.69386    0.78800    1.000
    N1034    N        0.21572    0.70080    0.81048    1.000
    Si1035   Si       0.18873    0.69489    0.77752    1.000
    Si1036   Si       0.08512    0.56167    0.84768    1.000
    Si1037   Si       0.01417    0.56169    0.85884    1.000
    N1038    N        0.04474    0.57011    0.83278    1.000
    N1039    N        0.09787    0.52299    0.84041    1.000
    N1040    N        0.99634    0.52545    0.84232    1.000
    N1041    N        0.99492    0.59806    0.86125    1.000
    Si1042   Si       0.00334    0.62122    0.82508    1.000
    N1043    N        0.11173    0.59031    0.82591    1.000
    N1044    N        0.17922    0.56342    0.84348    1.000
    Si1045   Si       0.15079    0.59486    0.84312    1.000
    Si1046   Si       0.18430    0.53408    0.87334    1.000
    Si1047   Si       0.21608    0.57361    0.82486    1.000
    N1048    N        0.17563    0.62969    0.82967    1.000
    N1049    N        0.24205    0.59053    0.85366    1.000
    Si1050   Si       0.99235    0.69618    0.86947    1.000
    N1051    N        0.99783    0.71247    0.82976    1.000
    N1052    N        0.08881    0.68832    0.83549    1.000
    N1053    N        0.04007    0.64653    0.83545    1.000
    Si1054   Si       0.06282    0.67073    0.86609    1.000
    Si1055   Si       0.99465    0.75501    0.83930    1.000
    N1056    N        0.22138    0.66288    0.86898    1.000
    N1057    N        0.16016    0.68864    0.85906    1.000
    Si1058   Si       0.20301    0.69967    0.85156    1.000
    Si1059   Si       0.12925    0.70265    0.82936    1.000
    Si1060   Si       0.15925    0.75283    0.87067    1.000
    N1061    N        0.12722    0.74617    0.83650    1.000
    N1062    N        0.19886    0.74253    0.86238    1.000
    Si1063   Si       0.17405    0.64819    0.87160    1.000
    Si1064   Si       0.05917    0.55193    0.91888    1.000
    N1065    N        0.01552    0.54692    0.90120    1.000
    Si1066   Si       0.10543    0.61041    0.90024    1.000
    N1067    N        0.08536    0.57310    0.89065    1.000
    N1068    N        0.99522    0.60841    0.93165    1.000
    N1069    N        0.06469    0.51188    0.93214    1.000
    Si1070   Si       0.99795    0.50856    0.88200    1.000
    Si1071   Si       0.99259    0.56467    0.93564    1.000
    N1072    N        0.16013    0.53139    0.91075    1.000
    N1073    N        0.22292    0.53693    0.89183    1.000
    N1074    N        0.14079    0.61798    0.87941    1.000
    N1075    N        0.07805    0.64336    0.89735    1.000
    Si1076   Si       0.04682    0.72029    0.91659    1.000
    Si1077   Si       0.10535    0.73795    0.92388    1.000
    N1078    N        0.08370    0.70148    0.92878    1.000
    N1079    N        0.03133    0.69582    0.88581    1.000
    N1080    N        0.14593    0.74069    0.91140    1.000
    Si1081   Si       0.22210    0.66021    0.91272    1.000
    N1082    N        0.23556    0.69481    0.93335    1.000
    N1083    N        0.18058    0.64838    0.91833    1.000
    Si1084   Si       0.09443    0.59357    0.96934    1.000
    Si1085   Si       0.02705    0.61784    0.95723    1.000
    N1086    N        0.05612    0.58385    0.94955    1.000
    N1087    N        0.99853    0.54805    0.97585    1.000
    Si1088   Si       0.09890    0.51365    0.96057    1.000
    N1089    N        0.11617    0.62342    0.94303    1.000
    N1090    N        0.11417    0.55580    0.95807    1.000
    N1091    N        0.16619    0.52105    0.98210    1.000
    N1092    N        0.17625    0.58766    0.95955    1.000
    Si1093   Si       0.15632    0.55010    0.94918    1.000
    Si1094   Si       0.15948    0.62671    0.94862    1.000
    Si1095   Si       0.20979    0.51160    0.98715    1.000
    N1096    N        0.23329    0.54308    0.97053    1.000
    Si1097   Si       0.18272    0.59941    0.00063    1.000
    Si1098   Si       0.01998    0.75038    0.97686    1.000
    N1099    N        0.05282    0.65265    0.96413    1.000
    N1100    N        0.05375    0.72376    0.98726    1.000
    Si1101   Si       0.09688    0.71926    0.98935    1.000
    Si1102   Si       0.08796    0.66062    0.93959    1.000
    Si1103   Si       0.03932    0.68222    0.99286    1.000
    N1104    N        0.01127    0.73765    0.93643    1.000
    N1105    N        0.11510    0.68093    0.98535    1.000
    N1106    N        0.17343    0.71264    0.97192    1.000
    Si1107   Si       0.21709    0.71967    0.96382    1.000
    N1108    N        0.11672    0.75164    0.96530    1.000
    Si1109   Si       0.16146    0.75217    0.95179    1.000
    N1110    N        0.16929    0.64116    0.98983    1.000
    Si1111   Si       0.15480    0.68062    0.99949    1.000
    Si1112   Si       0.09056    0.83156    0.01748    1.000
    N1113    N        0.10379    0.86727    0.03838    1.000
    N1114    N        0.05757    0.82730    0.04597    1.000
    Si1115   Si       0.99950    0.79417    0.01696    1.000
    N1116    N        0.11905    0.79809    0.01932    1.000
    N1117    N        0.20290    0.80724    0.00585    1.000
    Si1118   Si       0.20271    0.77896    0.03911    1.000
    N1119    N        0.22303    0.87026    0.01681    1.000
    Si1120   Si       0.12385    0.76366    0.04670    1.000
    Si1121   Si       0.23500    0.82909    0.02402    1.000
    N1122    N        0.00234    0.95454    0.01870    1.000
    Si1123   Si       0.09312    0.90939    0.03220    1.000
    Si1124   Si       0.01085    0.91453    0.02776    1.000
    N1125    N        0.06192    0.98959    0.00860    1.000
    N1126    N        0.04966    0.90471    0.03853    1.000
    Si1127   Si       0.04666    0.00316    0.04662    1.000
    Si1128   Si       0.10468    0.00066    0.00094    1.000
    N1129    N        0.16771    0.88461    0.04561    1.000
    Si1130   Si       0.18347    0.88354    0.00598    1.000
    N1131    N        0.23783    0.99085    0.01063    1.000
    N1132    N        0.11810    0.00642    0.04309    1.000
    Si1133   Si       0.03357    0.81332    0.07933    1.000
    N1134    N        0.02013    0.85600    0.09190    1.000
    Si1135   Si       0.05441    0.86842    0.06121    1.000
    N1136    N        0.00069    0.79512    0.06239    1.000
    N1137    N        0.11085    0.76982    0.08736    1.000
    N1138    N        0.07767    0.88029    0.09799    1.000
    N1139    N        0.05207    0.79148    0.11100    1.000
    N1140    N        0.23332    0.80416    0.06073    1.000
    N1141    N        0.14888    0.83195    0.09242    1.000
    Si1142   Si       0.14913    0.78919    0.09666    1.000
    Si1143   Si       0.13509    0.86483    0.06829    1.000
    N1144    N        0.16643    0.76675    0.05834    1.000
    N1145    N        0.05540    0.97519    0.07740    1.000
    Si1146   Si       0.10568    0.91329    0.10153    1.000
    N1147    N        0.11216    0.93349    0.06217    1.000
    Si1148   Si       0.07773    0.97993    0.11251    1.000
    N1149    N        0.11804    0.99102    0.10500    1.000
    Si1150   Si       0.13086    0.97267    0.06828    1.000
    N1151    N        0.20633    0.88734    0.10974    1.000
    Si1152   Si       0.18287    0.91329    0.07830    1.000
    Si1153   Si       0.21464    0.96686    0.07901    1.000
    N1154    N        0.14367    0.89313    0.10194    1.000
    N1155    N        0.17188    0.95775    0.07486    1.000
    N1156    N        0.22316    0.92709    0.06206    1.000
    Si1157   Si       0.04725    0.86549    0.12580    1.000
    Si1158   Si       0.05185    0.79893    0.15538    1.000
    N1159    N        0.05777    0.84182    0.15943    1.000
    N1160    N        0.01244    0.78826    0.16991    1.000
    N1161    N        0.17593    0.77811    0.13095    1.000
    N1162    N        0.17372    0.84574    0.15962    1.000
    Si1163   Si       0.17108    0.86171    0.11980    1.000
    Si1164   Si       0.17460    0.80237    0.16688    1.000
    N1165    N        0.03462    0.90210    0.14475    1.000
    N1166    N        0.08962    0.94075    0.12959    1.000
    N1167    N        0.00101    0.96485    0.13351    1.000
    Si1168   Si       0.06901    0.92220    0.16308    1.000
    Si1169   Si       0.00736    0.92991    0.16124    1.000
    Si1170   Si       0.01515    0.00233    0.14903    1.000
    Si1171   Si       0.22291    0.91822    0.13752    1.000
    N1172    N        0.17539    0.97285    0.16477    1.000
    N1173    N        0.22605    0.95909    0.12105    1.000
    Si1174   Si       0.20470    0.99459    0.13797    1.000
    Si1175   Si       0.06441    0.86322    0.19822    1.000
    N1176    N        0.08896    0.83247    0.21805    1.000
    Si1177   Si       0.10429    0.79204    0.20986    1.000
    Si1178   Si       0.99253    0.77798    0.20579    1.000
    N1179    N        0.03133    0.86658    0.22468    1.000
    N1180    N        0.08386    0.77820    0.17415    1.000
    N1181    N        0.23031    0.85327    0.19690    1.000
    N1182    N        0.14609    0.79804    0.20149    1.000
    Si1183   Si       0.21128    0.77563    0.22098    1.000
    Si1184   Si       0.19175    0.87104    0.19045    1.000
    N1185    N        0.21402    0.79422    0.18164    1.000
    N1186    N        0.16261    0.86485    0.22333    1.000
    N1187    N        0.04259    0.94961    0.18547    1.000
    Si1188   Si       0.03119    0.97602    0.21587    1.000
    N1189    N        0.09074    0.89647    0.18817    1.000
    N1190    N        0.00823    0.00394    0.19130    1.000
    Si1191   Si       0.15414    0.00557    0.18680    1.000
    N1192    N        0.12650    0.99630    0.21912    1.000
    N1193    N        0.16161    0.93438    0.22615    1.000
    Si1194   Si       0.18796    0.94479    0.19359    1.000
    N1195    N        0.22123    0.95776    0.22336    1.000
    N1196    N        0.20168    0.91019    0.17382    1.000
    Si1197   Si       0.05165    0.79159    0.26425    1.000
    Si1198   Si       0.10301    0.84191    0.25836    1.000
    Si1199   Si       0.00543    0.83916    0.24521    1.000
    N1200    N        0.07350    0.82220    0.28401    1.000
    N1201    N        0.08076    0.76871    0.23960    1.000
    N1202    N        0.01643    0.79903    0.23506    1.000
    N1203    N        0.99508    0.83671    0.28582    1.000
    Si1204   Si       0.16404    0.82251    0.23636    1.000
    N1205    N        0.13956    0.82254    0.27275    1.000
    N1206    N        0.19834    0.80179    0.25377    1.000
    N1207    N        0.10536    0.88576    0.26492    1.000
    Si1208   Si       0.01356    0.93528    0.27772    1.000
    N1209    N        0.06137    0.99002    0.24360    1.000
    Si1210   Si       0.07593    0.97030    0.27959    1.000
    N1211    N        0.00305    0.95300    0.24066    1.000
    N1212    N        0.05723    0.93245    0.28019    1.000
    Si1213   Si       0.20002    0.93557    0.25653    1.000
    N1214    N        0.11720    0.96340    0.28078    1.000
    N1215    N        0.18414    0.98504    0.26526    1.000
    Si1216   Si       0.14668    0.97071    0.24834    1.000
    N1217    N        0.22527    0.89521    0.25166    1.000
    N1218    N        0.16680    0.91460    0.28136    1.000
    Si1219   Si       0.14460    0.89819    0.24388    1.000
    Si1220   Si       0.07320    0.83808    0.32470    1.000
    Si1221   Si       0.01186    0.86612    0.31307    1.000
    N1222    N        0.05290    0.87541    0.31872    1.000
    Si1223   Si       0.06700    0.77129    0.33030    1.000
    N1224    N        0.03971    0.76689    0.29667    1.000
    N1225    N        0.10871    0.76739    0.31093    1.000
    N1226    N        0.05282    0.80817    0.34826    1.000
    N1227    N        0.11336    0.83399    0.33997    1.000
    Si1228   Si       0.13263    0.80339    0.31030    1.000
    N1229    N        0.17543    0.79111    0.31924    1.000
    Si1230   Si       0.21329    0.79481    0.29552    1.000
    N1231    N        0.23802    0.82549    0.31660    1.000
    Si1232   Si       0.23712    0.85653    0.34904    1.000
    Si1233   Si       0.08127    0.90212    0.29946    1.000
    N1234    N        0.06230    0.99425    0.31281    1.000
    Si1235   Si       0.02693    0.98273    0.33485    1.000
    N1236    N        0.99680    0.96553    0.30654    1.000
    N1237    N        0.99553    0.90017    0.29222    1.000
    N1238    N        0.11089    0.91479    0.32900    1.000
    Si1239   Si       0.20006    0.97898    0.31242    1.000
    N1240    N        0.16403    0.96367    0.33060    1.000
    N1241    N        0.22854    0.89653    0.33598    1.000
    N1242    N        0.22506    0.94545    0.29240    1.000
    Si1243   Si       0.14151    0.93717    0.30655    1.000
    Si1244   Si       0.01829    0.82299    0.37351    1.000
    N1245    N        0.99813    0.85633    0.35393    1.000
    Si1246   Si       0.11411    0.85052    0.38013    1.000
    N1247    N        0.99250    0.78960    0.37577    1.000
    N1248    N        0.21563    0.78999    0.37619    1.000
    N1249    N        0.21322    0.85722    0.38620    1.000
    Si1250   Si       0.17997    0.77212    0.35699    1.000
    N1251    N        0.14277    0.76957    0.38030    1.000
    N1252    N        0.14684    0.88063    0.38146    1.000
    Si1253   Si       0.21327    0.81947    0.40749    1.000
    N1254    N        0.08457    0.88907    0.38207    1.000
    N1255    N        0.04210    0.95846    0.36887    1.000
    Si1256   Si       0.05562    0.92232    0.38928    1.000
    N1257    N        0.22442    0.97386    0.35017    1.000
    N1258    N        0.13021    0.95091    0.39028    1.000
    Si1259   Si       0.16799    0.96493    0.37504    1.000
    Si1260   Si       0.11899    0.91257    0.37065    1.000
    Si1261   Si       0.22482    0.93027    0.36132    1.000
    Si1262   Si       0.18453    0.88889    0.40278    1.000
    N1263    N        0.19217    0.92970    0.38858    1.000
    N1264    N        0.17339    0.00412    0.39169    1.000
    Si1265   Si       0.04231    0.80057    0.44136    1.000
    Si1266   Si       0.03094    0.87203    0.43282    1.000
    Si1267   Si       0.09633    0.84789    0.45480    1.000
    N1268    N        0.03469    0.83349    0.41215    1.000
    N1269    N        0.00025    0.86708    0.46185    1.000
    N1270    N        0.07059    0.88270    0.44745    1.000
    N1271    N        0.11201    0.82854    0.41642    1.000
    N1272    N        0.05061    0.75844    0.42971    1.000
    N1273    N        0.17686    0.81553    0.42961    1.000
    Si1274   Si       0.13935    0.79388    0.41746    1.000
    N1275    N        0.13956    0.76074    0.44558    1.000
    N1276    N        0.07286    0.94905    0.42595    1.000
    N1277    N        0.01499    0.99998    0.42259    1.000
    Si1278   Si       0.07841    0.92273    0.46172    1.000
    N1279    N        0.01961    0.90530    0.41056    1.000
    Si1280   Si       0.04880    0.98250    0.40469    1.000
    N1281    N        0.12342    0.92881    0.46100    1.000
    Si1282   Si       0.11518    0.95920    0.43033    1.000
    N1283    N        0.12406    0.99720    0.44856    1.000
    N1284    N        0.18811    0.89340    0.44559    1.000
    Si1285   Si       0.06337    0.81231    0.51442    1.000
    N1286    N        0.06990    0.81758    0.47204    1.000
    N1287    N        0.00811    0.79482    0.46754    1.000
    Si1288   Si       0.18380    0.82026    0.47268    1.000
    N1289    N        0.13065    0.86372    0.47992    1.000
    N1290    N        0.15250    0.80276    0.49602    1.000
    N1291    N        0.19358    0.85610    0.49677    1.000
    Si1292   Si       0.13552    0.83834    0.51476    1.000
    N1293    N        0.21809    0.79619    0.48045    1.000
    Si1294   Si       0.14105    0.76266    0.48997    1.000
    N1295    N        0.06872    0.93193    0.50126    1.000
    N1296    N        0.00078    0.90579    0.51543    1.000
    N1297    N        0.10722    0.99490    0.51984    1.000
    Si1298   Si       0.03391    0.92881    0.52909    1.000
    Si1299   Si       0.15530    0.90151    0.47345    1.000
    Si1300   Si       0.21925    0.88158    0.47299    1.000
    Si1301   Si       0.21811    0.93846    0.51822    1.000
    N1302    N        0.21215    0.97747    0.50180    1.000
    N1303    N        0.17664    0.91561    0.50931    1.000
    N1304    N        0.05143    0.77797    0.53938    1.000
    N1305    N        0.10260    0.81682    0.53339    1.000
    Si1306   Si       0.10667    0.81750    0.57623    1.000
    N1307    N        0.99888    0.80568    0.57510    1.000
    Si1308   Si       0.03981    0.79341    0.57965    1.000
    Si1309   Si       0.00142    0.86575    0.53313    1.000
    Si1310   Si       0.09764    0.76237    0.53942    1.000
    N1311    N        0.11321    0.77479    0.58390    1.000
    N1312    N        0.04040    0.84728    0.52762    1.000
    N1313    N        0.14461    0.86274    0.55103    1.000
    Si1314   Si       0.18248    0.88005    0.53257    1.000
    Si1315   Si       0.00936    0.99325    0.55807    1.000
    N1316    N        0.04250    0.97198    0.54215    1.000
    N1317    N        0.10411    0.94587    0.56652    1.000
    N1318    N        0.03959    0.91205    0.56823    1.000
    Si1319   Si       0.08333    0.96228    0.53106    1.000
    N1320    N        0.21675    0.87983    0.55680    1.000
    Si1321   Si       0.20403    0.97307    0.58441    1.000
    Si1322   Si       0.23728    0.00005    0.53717    1.000
    N1323    N        0.23425    0.95423    0.55521    1.000
    N1324    N        0.16445    0.97248    0.56593    1.000
    Si1325   Si       0.14122    0.00225    0.54622    1.000
    N1326    N        0.01970    0.86677    0.61895    1.000
    Si1327   Si       0.06220    0.85986    0.61718    1.000
    N1328    N        0.06702    0.82657    0.59095    1.000
    N1329    N        0.05490    0.76443    0.61157    1.000
    Si1330   Si       0.09838    0.75636    0.62025    1.000
    Si1331   Si       0.17409    0.81786    0.60738    1.000
    N1332    N        0.13356    0.83456    0.60759    1.000
    N1333    N        0.18043    0.77697    0.59983    1.000
    N1334    N        0.19936    0.84144    0.63422    1.000
    Si1335   Si       0.13236    0.87646    0.59290    1.000
    N1336    N        0.09137    0.88946    0.60154    1.000
    N1337    N        0.05972    0.94751    0.62354    1.000
    Si1338   Si       0.01816    0.96255    0.62579    1.000
    N1339    N        0.01036    0.99534    0.60024    1.000
    Si1340   Si       0.00507    0.89961    0.59075    1.000
    Si1341   Si       0.07347    0.92594    0.58975    1.000
    N1342    N        0.99213    0.92546    0.62275    1.000
    N1343    N        0.15905    0.90959    0.60359    1.000
    Si1344   Si       0.13852    0.94618    0.59209    1.000
    N1345    N        0.12972    0.96983    0.62656    1.000
    Si1346   Si       0.19714    0.91521    0.62971    1.000
    N1347    N        0.20255    0.95848    0.62637    1.000
    N1348    N        0.23792    0.90266    0.62039    1.000
    N1349    N        0.07828    0.84391    0.65423    1.000
    N1350    N        0.03208    0.76874    0.68349    1.000
    Si1351   Si       0.06681    0.86464    0.69279    1.000
    N1352    N        0.11588    0.78186    0.65113    1.000
    Si1353   Si       0.11649    0.82373    0.64717    1.000
    N1354    N        0.14581    0.84349    0.67579    1.000
    Si1355   Si       0.18706    0.85539    0.67273    1.000
    Si1356   Si       0.23162    0.77060    0.68717    1.000
    N1357    N        0.18988    0.77182    0.69757    1.000
    N1358    N        0.23259    0.78594    0.64595    1.000
    N1359    N        0.02509    0.96784    0.66779    1.000
    Si1360   Si       0.06073    0.94056    0.66644    1.000
    N1361    N        0.09479    0.95314    0.69086    1.000
    N1362    N        0.04777    0.90046    0.66931    1.000
    Si1363   Si       0.00916    0.89445    0.65124    1.000
    Si1364   Si       0.00508    0.00362    0.68305    1.000
    N1365    N        0.23262    0.99972    0.67480    1.000
    Si1366   Si       0.12268    0.97767    0.66980    1.000
    Si1367   Si       0.19350    0.98891    0.65648    1.000
    N1368    N        0.19147    0.90131    0.67063    1.000
    N1369    N        0.16331    0.97917    0.68579    1.000
    N1370    N        0.03332    0.86675    0.72090    1.000
    N1371    N        0.02841    0.80499    0.74645    1.000
    Si1372   Si       0.05670    0.79285    0.71280    1.000
    N1373    N        0.08354    0.82689    0.71643    1.000
    Si1374   Si       0.99224    0.87825    0.71632    1.000
    N1375    N        0.08566    0.75710    0.71086    1.000
    Si1376   Si       0.12249    0.84771    0.71185    1.000
    N1377    N        0.15101    0.83137    0.73961    1.000
    Si1378   Si       0.19445    0.84143    0.73930    1.000
    N1379    N        0.14273    0.76066    0.75165    1.000
    N1380    N        0.21621    0.83813    0.70141    1.000
    N1381    N        0.10377    0.88828    0.70970    1.000
    Si1382   Si       0.10723    0.92736    0.72523    1.000
    N1383    N        0.08331    0.93772    0.76173    1.000
    N1384    N        0.04421    0.00003    0.76342    1.000
    N1385    N        0.98559    0.99174    0.72107    1.000
    Si1386   Si       0.00203    0.00799    0.75679    1.000
    Si1387   Si       0.21081    0.91104    0.70886    1.000
    Si1388   Si       0.23867    0.97989    0.74396    1.000
    N1389    N        0.19549    0.88469    0.74165    1.000
    N1390    N        0.17150    0.00538    0.75374    1.000
    Si1391   Si       0.17160    0.97132    0.72796    1.000
    N1392    N        0.14622    0.93952    0.74099    1.000
    N1393    N        0.20899    0.95067    0.72680    1.000
    N1394    N        0.07693    0.85037    0.78989    1.000
    Si1395   Si       0.03642    0.77381    0.77828    1.000
    N1396    N        0.00802    0.78492    0.80820    1.000
    N1397    N        0.07749    0.76787    0.78564    1.000
    N1398    N        0.02146    0.87210    0.78824    1.000
    Si1399   Si       0.04404    0.84776    0.75834    1.000
    Si1400   Si       0.23452    0.79435    0.79312    1.000
    Si1401   Si       0.12159    0.85140    0.80023    1.000
    N1402    N        0.13381    0.80723    0.80043    1.000
    N1403    N        0.20075    0.80758    0.76874    1.000
    Si1404   Si       0.15777    0.79755    0.76778    1.000
    Si1405   Si       0.00005    0.90840    0.77696    1.000
    N1406    N        0.02012    0.94358    0.78956    1.000
    Si1407   Si       0.05734    0.96526    0.78332    1.000
    Si1408   Si       0.10917    0.92235    0.79374    1.000
    Si1409   Si       0.11516    0.99412    0.81294    1.000
    N1410    N        0.07603    0.91329    0.82057    1.000
    N1411    N        0.13194    0.95346    0.81581    1.000
    N1412    N        0.13726    0.88945    0.78551    1.000
    N1413    N        0.19271    0.92786    0.79822    1.000
    Si1414   Si       0.16822    0.90967    0.76443    1.000
    Si1415   Si       0.23547    0.93359    0.79443    1.000
    N1416    N        0.07833    0.79640    0.85025    1.000
    N1417    N        0.05911    0.86529    0.86175    1.000
    Si1418   Si       0.09248    0.83618    0.86523    1.000
    N1419    N        0.01528    0.76978    0.87489    1.000
    Si1420   Si       0.10477    0.78065    0.81998    1.000
    Si1421   Si       0.05253    0.87502    0.81818    1.000
    N1422    N        0.23467    0.80109    0.83592    1.000
    N1423    N        0.12613    0.85382    0.84481    1.000
    N1424    N        0.19811    0.86171    0.84124    1.000
    Si1425   Si       0.16076    0.87059    0.86130    1.000
    Si1426   Si       0.23662    0.76523    0.86363    1.000
    Si1427   Si       0.23487    0.84151    0.84844    1.000
    N1428    N        0.15971    0.79413    0.87723    1.000
    Si1429   Si       0.06545    0.94589    0.84866    1.000
    N1430    N        0.02330    0.94731    0.85526    1.000
    N1431    N        0.00742    0.00975    0.84463    1.000
    Si1432   Si       0.00281    0.97044    0.82308    1.000
    N1433    N        0.07172    0.98184    0.82297    1.000
    Si1434   Si       0.16844    0.94001    0.83246    1.000
    Si1435   Si       0.15964    0.99753    0.87065    1.000
    Si1436   Si       0.22361    0.98989    0.87268    1.000
    N1437    N        0.19017    0.96962    0.85385    1.000
    N1438    N        0.15229    0.91338    0.86459    1.000
    N1439    N        0.03550    0.81860    0.91795    1.000
    N1440    N        0.10274    0.82447    0.90555    1.000
    Si1441   Si       0.05369    0.78892    0.88686    1.000
    N1442    N        0.07013    0.88081    0.93253    1.000
    Si1443   Si       0.98778    0.75921    0.90675    1.000
    N1444    N        0.07116    0.75572    0.90562    1.000
    Si1445   Si       0.14686    0.81845    0.91163    1.000
    N1446    N        0.16008    0.85802    0.90222    1.000
    Si1447   Si       0.23494    0.86434    0.92828    1.000
    Si1448   Si       0.98719    0.00918    0.88425    1.000
    Si1449   Si       0.99138    0.93080    0.88086    1.000
    N1450    N        0.08357    0.93063    0.88566    1.000
    Si1451   Si       0.05510    0.89511    0.89335    1.000
    N1452    N        0.01479    0.90603    0.90882    1.000
    Si1453   Si       0.12694    0.93165    0.89609    1.000
    N1454    N        0.20635    0.89874    0.92979    1.000
    N1455    N        0.14095    0.97376    0.89929    1.000
    N1456    N        0.13523    0.91425    0.93421    1.000
    Si1457   Si       0.15371    0.98944    0.93635    1.000
    N1458    N        0.01886    0.79336    0.97718    1.000
    N1459    N        0.08414    0.82563    0.97487    1.000
    Si1460   Si       0.00258    0.81601    0.94397    1.000
    Si1461   Si       0.07160    0.83677    0.93443    1.000
    Si1462   Si       0.11682    0.79430    0.97608    1.000
    N1463    N        0.15211    0.79963    0.95047    1.000
    N1464    N        0.16471    0.86064    0.97344    1.000
    Si1465   Si       0.18389    0.82143    0.97093    1.000
    N1466    N        0.21364    0.82785    0.94027    1.000
    N1467    N        0.20491    0.75832    0.94663    1.000
    Si1468   Si       0.23205    0.78928    0.93653    1.000
    Si1469   Si       0.00631    0.90966    0.95179    1.000
    N1470    N        0.00172    0.99248    0.96220    1.000
    N1471    N        0.04198    0.93617    0.96216    1.000
    Si1472   Si       0.07802    0.91247    0.95937    1.000
    Si1473   Si       0.02953    0.96967    0.98667    1.000
    N1474    N        0.00114    0.89215    0.99129    1.000
    N1475    N        0.10569    0.91794    0.99118    1.000
    Si1476   Si       0.14230    0.93581    0.97347    1.000
    Si1477   Si       0.21479    0.00400    0.97568    1.000
    N1478    N        0.18052    0.92257    0.98552    1.000
    Si1479   Si       0.20804    0.93553    0.95255    1.000
    N1480    N        0.13326    0.97863    0.97499    1.000
    N1481    N        0.19282    0.97602    0.95062    1.000
    Si1482   Si       0.16456    0.88369    0.93660    1.000
    Si1483   Si       0.28064    0.08348    0.03494    1.000
    N1484    N        0.25088    0.05384    0.02797    1.000
    N1485    N        0.35485    0.05098    0.00706    1.000
    N1486    N        0.25186    0.11458    0.04859    1.000
    N1487    N        0.30679    0.10246    0.00508    1.000
    N1488    N        0.30464    0.01557    0.03662    1.000
    Si1489   Si       0.25987    0.01282    0.03947    1.000
    Si1490   Si       0.32875    0.13254    0.02470    1.000
    N1491    N        0.36318    0.11070    0.04086    1.000
    N1492    N        0.41420    0.06049    0.02280    1.000
    Si1493   Si       0.45762    0.06630    0.02374    1.000
    N1494    N        0.47264    0.03235    0.04509    1.000
    N1495    N        0.47641    0.09900    0.04592    1.000
    Si1496   Si       0.37937    0.06985    0.04626    1.000
    N1497    N        0.31360    0.21251    0.04405    1.000
    Si1498   Si       0.33174    0.20729    0.00582    1.000
    N1499    N        0.24811    0.23302    0.02382    1.000
    N1500    N        0.33713    0.16418    0.99924    1.000
    Si1501   Si       0.27947    0.23816    0.05393    1.000
    N1502    N        0.47970    0.15234    0.99949    1.000
    N1503    N        0.42596    0.14216    0.02968    1.000
    Si1504   Si       0.46872    0.13985    0.03979    1.000
    N1505    N        0.36923    0.22714    0.00824    1.000
    Si1506   Si       0.45884    0.24465    0.05398    1.000
    Si1507   Si       0.31874    0.11361    0.09013    1.000
    N1508    N        0.30685    0.07753    0.06770    1.000
    Si1509   Si       0.31788    0.03483    0.07260    1.000
    N1510    N        0.29620    0.02643    0.11002    1.000
    Si1511   Si       0.24937    0.10946    0.09136    1.000
    N1512    N        0.36215    0.03700    0.07352    1.000
    N1513    N        0.40679    0.08882    0.07909    1.000
    N1514    N        0.42363    0.02096    0.10326    1.000
    Si1515   Si       0.39926    0.12883    0.05973    1.000
    Si1516   Si       0.46308    0.01317    0.08253    1.000
    Si1517   Si       0.42448    0.06572    0.11160    1.000
    N1518    N        0.26646    0.21066    0.08615    1.000
    Si1519   Si       0.30237    0.18455    0.07656    1.000
    N1520    N        0.31004    0.14470    0.06161    1.000
    N1521    N        0.32579    0.18614    0.11051    1.000
    Si1522   Si       0.43580    0.18004    0.09377    1.000
    N1523    N        0.43224    0.22220    0.08099    1.000
    N1524    N        0.39757    0.16197    0.08690    1.000
    N1525    N        0.47325    0.16297    0.07704    1.000
    Si1526   Si       0.40109    0.24029    0.10434    1.000
    N1527    N        0.37533    0.25493    0.07275    1.000
    Si1528   Si       0.28210    0.11771    0.16202    1.000
    Si1529   Si       0.26751    0.05250    0.13435    1.000
    N1530    N        0.34069    0.02906    0.16257    1.000
    N1531    N        0.28638    0.07350    0.16736    1.000
    N1532    N        0.24352    0.01667    0.14610    1.000
    N1533    N        0.28384    0.11875    0.11774    1.000
    N1534    N        0.23998    0.12778    0.16888    1.000
    N1535    N        0.35294    0.12017    0.11619    1.000
    Si1536   Si       0.37353    0.10996    0.15356    1.000
    Si1537   Si       0.48335    0.06440    0.15163    1.000
    N1538    N        0.40071    0.07722    0.14572    1.000
    N1539    N        0.45076    0.03818    0.16495    1.000
    N1540    N        0.46743    0.07161    0.11169    1.000
    Si1541   Si       0.34004    0.22036    0.13345    1.000
    N1542    N        0.31669    0.22270    0.16941    1.000
    Si1543   Si       0.36517    0.16375    0.11687    1.000
    Si1544   Si       0.40630    0.18802    0.15904    1.000
    N1545    N        0.44304    0.18410    0.13606    1.000
    Si1546   Si       0.48195    0.19884    0.14617    1.000
    N1547    N        0.38024    0.20844    0.12900    1.000
    N1548    N        0.38548    0.15246    0.15741    1.000
    N1549    N        0.34879    0.09793    0.18668    1.000
    Si1550   Si       0.32458    0.06129    0.18630    1.000
    N1551    N        0.32447    0.03333    0.22187    1.000
    N1552    N        0.41995    0.09120    0.21031    1.000
    N1553    N        0.39324    0.02915    0.19942    1.000
    Si1554   Si       0.41727    0.05866    0.18213    1.000
    Si1555   Si       0.42130    0.13318    0.22073    1.000
    N1556    N        0.48800    0.09938    0.17981    1.000
    Si1557   Si       0.34140    0.13433    0.21103    1.000
    N1558    N        0.33032    0.18412    0.22371    1.000
    N1559    N        0.30506    0.14828    0.18144    1.000
    N1560    N        0.26453    0.20715    0.20903    1.000
    Si1561   Si       0.29972    0.19004    0.19047    1.000
    N1562    N        0.40472    0.20619    0.19844    1.000
    N1563    N        0.47243    0.22028    0.18339    1.000
    Si1564   Si       0.44493    0.20165    0.21048    1.000
    N1565    N        0.38155    0.15024    0.22436    1.000
    N1566    N        0.45159    0.15860    0.20500    1.000
    Si1567   Si       0.37421    0.19334    0.22674    1.000
    Si1568   Si       0.48948    0.14263    0.19060    1.000
    N1569    N        0.28173    0.06576    0.26497    1.000
    Si1570   Si       0.29417    0.02687    0.25168    1.000
    N1571    N        0.32406    0.12025    0.24986    1.000
    Si1572   Si       0.31131    0.09168    0.28032    1.000
    N1573    N        0.23860    0.12076    0.24646    1.000
    Si1574   Si       0.24221    0.08146    0.26696    1.000
    N1575    N        0.41708    0.05120    0.26708    1.000
    Si1576   Si       0.43896    0.08306    0.24791    1.000
    N1577    N        0.43329    0.12362    0.26287    1.000
    Si1578   Si       0.48102    0.02275    0.24516    1.000
    N1579    N        0.47740    0.06718    0.23948    1.000
    Si1580   Si       0.40994    0.01756    0.23963    1.000
    N1581    N        0.47670    0.02307    0.28966    1.000
    N1582    N        0.27862    0.17714    0.26619    1.000
    Si1583   Si       0.26584    0.21603    0.25254    1.000
    Si1584   Si       0.31851    0.16329    0.26083    1.000
    N1585    N        0.29634    0.24513    0.26556    1.000
    Si1586   Si       0.25429    0.14371    0.27856    1.000
    Si1587   Si       0.33979    0.25312    0.27077    1.000
    N1588    N        0.48473    0.16448    0.28706    1.000
    Si1589   Si       0.48046    0.21047    0.27762    1.000
    N1590    N        0.44589    0.21807    0.25109    1.000
    Si1591   Si       0.41355    0.24567    0.25850    1.000
    N1592    N        0.37262    0.22933    0.25424    1.000
    N1593    N        0.28365    0.12129    0.30080    1.000
    N1594    N        0.33230    0.06595    0.30970    1.000
    Si1595   Si       0.31892    0.02273    0.32651    1.000
    Si1596   Si       0.35286    0.08944    0.33780    1.000
    Si1597   Si       0.28509    0.12566    0.34430    1.000
    N1598    N        0.38450    0.11414    0.31971    1.000
    N1599    N        0.44338    0.06528    0.33288    1.000
    Si1600   Si       0.43424    0.03520    0.30265    1.000
    Si1601   Si       0.42144    0.10187    0.33943    1.000
    N1602    N        0.45080    0.13411    0.33198    1.000
    N1603    N        0.34324    0.17112    0.29426    1.000
    Si1604   Si       0.31281    0.25684    0.34355    1.000
    N1605    N        0.34567    0.25472    0.31354    1.000
    Si1606   Si       0.44185    0.15256    0.29260    1.000
    N1607    N        0.41057    0.17891    0.31002    1.000
    N1608    N        0.48660    0.23282    0.31418    1.000
    Si1609   Si       0.37421    0.15603    0.31850    1.000
    Si1610   Si       0.27011    0.06165    0.37981    1.000
    N1611    N        0.25525    0.09765    0.36088    1.000
    N1612    N        0.30575    0.04194    0.36477    1.000
    N1613    N        0.32585    0.11705    0.35647    1.000
    N1614    N        0.24078    0.02825    0.37802    1.000
    Si1615   Si       0.30957    0.02577    0.40590    1.000
    Si1616   Si       0.37387    0.02421    0.37470    1.000
    N1617    N        0.37689    0.06723    0.36689    1.000
    N1618    N        0.42590    0.10594    0.38349    1.000
    Si1619   Si       0.47537    0.06823    0.36343    1.000
    Si1620   Si       0.39167    0.08698    0.40268    1.000
    N1621    N        0.47209    0.05527    0.40299    1.000
    N1622    N        0.31584    0.21442    0.35984    1.000
    Si1623   Si       0.34503    0.14313    0.38490    1.000
    Si1624   Si       0.28703    0.19147    0.37916    1.000
    Si1625   Si       0.35656    0.20883    0.37343    1.000
    N1626    N        0.26678    0.16456    0.35447    1.000
    N1627    N        0.31493    0.16784    0.40482    1.000
    N1628    N        0.44065    0.17726    0.38315    1.000
    Si1629   Si       0.41227    0.18984    0.35255    1.000
    N1630    N        0.39362    0.22845    0.35634    1.000
    N1631    N        0.37195    0.16843    0.36106    1.000
    Si1632   Si       0.45719    0.13544    0.37995    1.000
    N1633    N        0.28463    0.05945    0.42080    1.000
    Si1634   Si       0.28175    0.09402    0.44576    1.000
    Si1635   Si       0.35536    0.01900    0.45472    1.000
    N1636    N        0.35119    0.02687    0.41288    1.000
    N1637    N        0.26312    0.13086    0.42853    1.000
    N1638    N        0.36446    0.11874    0.41428    1.000
    N1639    N        0.31483    0.11803    0.46445    1.000
    N1640    N        0.41534    0.06277    0.43370    1.000
    Si1641   Si       0.41995    0.01785    0.42708    1.000
    Si1642   Si       0.45385    0.08698    0.42552    1.000
    N1643    N        0.46617    0.12948    0.42297    1.000
    Si1644   Si       0.35525    0.12946    0.45489    1.000
    N1645    N        0.26197    0.20056    0.41572    1.000
    Si1646   Si       0.28327    0.16832    0.43634    1.000
    N1647    N        0.35976    0.22166    0.41488    1.000
    N1648    N        0.41460    0.18186    0.44925    1.000
    N1649    N        0.47786    0.18993    0.44789    1.000
    Si1650   Si       0.47876    0.14815    0.46062    1.000
    Si1651   Si       0.44356    0.19697    0.42218    1.000
    Si1652   Si       0.37791    0.20570    0.45007    1.000
    N1653    N        0.44515    0.24093    0.41602    1.000
    Si1654   Si       0.33906    0.06232    0.50977    1.000
    N1655    N        0.29847    0.05229    0.50210    1.000
    Si1656   Si       0.26006    0.07182    0.51326    1.000
    N1657    N        0.24585    0.08476    0.47193    1.000
    N1658    N        0.36058    0.05766    0.47229    1.000
    N1659    N        0.27357    0.11709    0.52294    1.000
    Si1660   Si       0.45545    0.09790    0.50215    1.000
    N1661    N        0.42699    0.06451    0.50424    1.000
    Si1662   Si       0.39960    0.07293    0.47238    1.000
    N1663    N        0.39134    0.11729    0.47443    1.000
    N1664    N        0.47496    0.08680    0.46518    1.000
    Si1665   Si       0.29967    0.14134    0.49904    1.000
    N1666    N        0.27963    0.17423    0.47839    1.000
    Si1667   Si       0.35337    0.18520    0.51114    1.000
    N1668    N        0.35031    0.23135    0.51631    1.000
    N1669    N        0.27926    0.24260    0.51783    1.000
    Si1670   Si       0.24477    0.25550    0.49666    1.000
    N1671    N        0.35466    0.17329    0.46821    1.000
    Si1672   Si       0.24122    0.18090    0.50006    1.000
    N1673    N        0.33049    0.15355    0.52609    1.000
    N1674    N        0.45050    0.14080    0.49411    1.000
    Si1675   Si       0.41119    0.15597    0.48502    1.000
    N1676    N        0.39461    0.17504    0.52376    1.000
    N1677    N        0.39563    0.24151    0.46914    1.000
    Si1678   Si       0.26643    0.11456    0.56538    1.000
    N1679    N        0.25559    0.07207    0.56092    1.000
    N1680    N        0.35334    0.08583    0.54215    1.000
    N1681    N        0.34759    0.02467    0.53054    1.000
    Si1682   Si       0.34146    0.12454    0.55702    1.000
    N1683    N        0.30593    0.12388    0.58298    1.000
    Si1684   Si       0.36407    0.04758    0.56670    1.000
    N1685    N        0.40612    0.03152    0.56304    1.000
    N1686    N        0.47000    0.02789    0.54634    1.000
    Si1687   Si       0.47451    0.06474    0.56914    1.000
    N1688    N        0.47830    0.09605    0.53833    1.000
    Si1689   Si       0.43074    0.02624    0.52716    1.000
    Si1690   Si       0.26658    0.22112    0.55384    1.000
    N1691    N        0.30641    0.22568    0.56960    1.000
    Si1692   Si       0.31699    0.25305    0.53620    1.000
    N1693    N        0.24471    0.18512    0.54316    1.000
    N1694    N        0.24175    0.24482    0.58197    1.000
    N1695    N        0.36253    0.15140    0.58373    1.000
    Si1696   Si       0.42240    0.23975    0.56866    1.000
    N1697    N        0.46418    0.22172    0.56530    1.000
    Si1698   Si       0.39876    0.17199    0.56708    1.000
    N1699    N        0.43569    0.15070    0.57786    1.000
    Si1700   Si       0.35144    0.04498    0.63163    1.000
    N1701    N        0.27096    0.03214    0.61702    1.000
    N1702    N        0.33495    0.02823    0.59496    1.000
    N1703    N        0.38166    0.06494    0.60937    1.000
    Si1704   Si       0.41662    0.03919    0.60488    1.000
    N1705    N        0.45115    0.06602    0.60609    1.000
    N1706    N        0.42700    0.12231    0.63907    1.000
    Si1707   Si       0.32992    0.14717    0.61403    1.000
    Si1708   Si       0.31879    0.22780    0.61160    1.000
    N1709    N        0.31395    0.18588    0.62549    1.000
    N1710    N        0.35181    0.25183    0.62236    1.000
    N1711    N        0.28303    0.24043    0.64000    1.000
    N1712    N        0.39640    0.21178    0.58639    1.000
    Si1713   Si       0.39358    0.23982    0.62051    1.000
    N1714    N        0.45473    0.18925    0.63153    1.000
    N1715    N        0.48286    0.25586    0.62222    1.000
    Si1716   Si       0.45310    0.14826    0.61699    1.000
    Si1717   Si       0.47865    0.21567    0.60542    1.000
    Si1718   Si       0.31560    0.11003    0.66305    1.000
    N1719    N        0.26334    0.06302    0.69062    1.000
    Si1720   Si       0.28523    0.04327    0.65817    1.000
    N1721    N        0.31865    0.07030    0.64738    1.000
    N1722    N        0.36788    0.01679    0.66023    1.000
    N1723    N        0.35068    0.13120    0.64722    1.000
    N1724    N        0.42031    0.05635    0.66734    1.000
    N1725    N        0.47964    0.08912    0.66955    1.000
    Si1726   Si       0.41110    0.01347    0.66400    1.000
    N1727    N        0.38462    0.11107    0.69861    1.000
    Si1728   Si       0.44396    0.08385    0.64429    1.000
    N1729    N        0.28161    0.12927    0.64842    1.000
    N1730    N        0.29589    0.18775    0.69452    1.000
    Si1731   Si       0.28225    0.19908    0.65553    1.000
    Si1732   Si       0.24316    0.14285    0.66304    1.000
    N1733    N        0.23927    0.18550    0.65965    1.000
    Si1734   Si       0.43583    0.20105    0.66779    1.000
    Si1735   Si       0.39226    0.13307    0.66167    1.000
    Si1736   Si       0.39180    0.25613    0.69450    1.000
    N1737    N        0.40442    0.17276    0.67527    1.000
    N1738    N        0.40929    0.23578    0.65899    1.000
    Si1739   Si       0.34913    0.12007    0.72590    1.000
    Si1740   Si       0.27118    0.09929    0.71521    1.000
    N1741    N        0.31318    0.10747    0.70616    1.000
    N1742    N        0.26183    0.08813    0.75603    1.000
    N1743    N        0.38353    0.04520    0.72836    1.000
    N1744    N        0.44229    0.07651    0.72748    1.000
    Si1745   Si       0.47982    0.07806    0.71069    1.000
    Si1746   Si       0.40607    0.07379    0.70543    1.000
    N1747    N        0.30665    0.24928    0.70727    1.000
    Si1748   Si       0.26514    0.17460    0.72190    1.000
    Si1749   Si       0.32660    0.20838    0.71453    1.000
    N1750    N        0.34938    0.16394    0.72410    1.000
    Si1751   Si       0.24767    0.25472    0.73066    1.000
    N1752    N        0.31751    0.21373    0.75641    1.000
    N1753    N        0.24416    0.21125    0.73091    1.000
    N1754    N        0.24912    0.13552    0.70585    1.000
    Si1755   Si       0.31388    0.25696    0.74891    1.000
    N1756    N        0.36755    0.22219    0.71040    1.000
    Si1757   Si       0.38807    0.18391    0.71614    1.000
    N1758    N        0.42025    0.17267    0.74184    1.000
    Si1759   Si       0.46009    0.19159    0.74106    1.000
    N1760    N        0.45750    0.21506    0.70472    1.000
    N1761    N        0.34692    0.04614    0.79239    1.000
    Si1762   Si       0.27228    0.12109    0.78471    1.000
    Si1763   Si       0.34344    0.11971    0.80180    1.000
    N1764    N        0.28317    0.02979    0.78916    1.000
    N1765    N        0.30378    0.10147    0.80542    1.000
    Si1766   Si       0.30734    0.05943    0.80995    1.000
    Si1767   Si       0.25077    0.01142    0.80788    1.000
    N1768    N        0.36132    0.10375    0.76348    1.000
    Si1769   Si       0.37804    0.06278    0.76672    1.000
    Si1770   Si       0.43517    0.01941    0.78981    1.000
    N1771    N        0.41630    0.06017    0.79028    1.000
    N1772    N        0.44661    0.12139    0.78276    1.000
    N1773    N        0.47249    0.03820    0.77431    1.000
    Si1774   Si       0.45395    0.07896    0.76939    1.000
    N1775    N        0.33485    0.16040    0.80450    1.000
    Si1776   Si       0.30552    0.18419    0.78354    1.000
    N1777    N        0.28496    0.20739    0.81407    1.000
    N1778    N        0.27561    0.16019    0.76338    1.000
    N1779    N        0.40567    0.18329    0.81254    1.000
    Si1780   Si       0.48791    0.13439    0.77395    1.000
    N1781    N        0.46187    0.18922    0.78668    1.000
    Si1782   Si       0.42783    0.15926    0.78486    1.000
    N1783    N        0.44417    0.25167    0.79064    1.000
    Si1784   Si       0.43397    0.21723    0.81751    1.000
    N1785    N        0.31663    0.04250    0.85038    1.000
    Si1786   Si       0.35314    0.02327    0.82926    1.000
    N1787    N        0.25155    0.01572    0.85224    1.000
    Si1788   Si       0.28921    0.01142    0.86890    1.000
    Si1789   Si       0.36992    0.12248    0.87214    1.000
    N1790    N        0.37647    0.10824    0.83063    1.000
    N1791    N        0.38345    0.04562    0.84908    1.000
    N1792    N        0.44617    0.07329    0.85306    1.000
    Si1793   Si       0.44797    0.03028    0.86196    1.000
    Si1794   Si       0.40786    0.07771    0.83055    1.000
    N1795    N        0.35006    0.21887    0.83570    1.000
    Si1796   Si       0.30970    0.20712    0.84873    1.000
    Si1797   Si       0.24860    0.22715    0.82754    1.000
    N1798    N        0.29859    0.24193    0.87465    1.000
    N1799    N        0.29760    0.17505    0.87224    1.000
    N1800    N        0.46409    0.13830    0.87177    1.000
    Si1801   Si       0.37290    0.24564    0.86297    1.000
    N1802    N        0.46624    0.20304    0.84767    1.000
    N1803    N        0.41229    0.24878    0.84545    1.000
    Si1804   Si       0.36735    0.17924    0.83062    1.000
    N1805    N        0.37314    0.16666    0.87289    1.000
    N1806    N        0.27778    0.06632    0.90219    1.000
    N1807    N        0.34817    0.05575    0.91038    1.000
    Si1808   Si       0.33822    0.01598    0.92540    1.000
    Si1809   Si       0.31837    0.07193    0.88423    1.000
    Si1810   Si       0.27745    0.03871    0.93614    1.000
    N1811    N        0.32833    0.11316    0.88202    1.000
    Si1812   Si       0.24121    0.08938    0.90039    1.000
    N1813    N        0.25911    0.12825    0.90390    1.000
    Si1814   Si       0.44464    0.10297    0.88601    1.000
    Si1815   Si       0.38343    0.03754    0.89011    1.000
    N1816    N        0.42444    0.02660    0.89843    1.000
    N1817    N        0.45783    0.08118    0.92074    1.000
    N1818    N        0.40015    0.10821    0.89790    1.000
    Si1819   Si       0.44128    0.04340    0.93460    1.000
    N1820    N        0.48514    0.00783    0.87721    1.000
    Si1821   Si       0.26517    0.22393    0.90185    1.000
    Si1822   Si       0.30116    0.14228    0.89912    1.000
    N1823    N        0.25466    0.19072    0.92705    1.000
    Si1824   Si       0.38738    0.18847    0.90737    1.000
    N1825    N        0.48848    0.18459    0.92287    1.000
    N1826    N        0.36676    0.22760    0.90203    1.000
    N1827    N        0.46611    0.25038    0.93176    1.000
    Si1828   Si       0.46594    0.17965    0.88609    1.000
    N1829    N        0.42951    0.19509    0.90485    1.000
    Si1830   Si       0.45365    0.21085    0.93998    1.000
    N1831    N        0.30815    0.04591    0.96365    1.000
    Si1832   Si       0.33263    0.07832    0.97753    1.000
    N1833    N        0.35823    0.11075    0.95992    1.000
    N1834    N        0.24896    0.01084    0.95154    1.000
    N1835    N        0.35810    0.00402    0.96206    1.000
    Si1836   Si       0.32201    0.01641    0.99396    1.000
    Si1837   Si       0.46552    0.10246    0.95719    1.000
    N1838    N        0.40610    0.06157    0.95541    1.000
    N1839    N        0.47520    0.07045    0.98435    1.000
    N1840    N        0.47252    0.01658    0.94703    1.000
    Si1841   Si       0.39258    0.03915    0.98959    1.000
    N1842    N        0.42836    0.12434    0.96109    1.000
    Si1843   Si       0.39708    0.10150    0.94203    1.000
    N1844    N        0.25708    0.16557    0.98966    1.000
    Si1845   Si       0.28210    0.18306    0.95848    1.000
    Si1846   Si       0.34774    0.15241    0.95948    1.000
    N1847    N        0.30390    0.21806    0.97416    1.000
    N1848    N        0.31224    0.15786    0.93745    1.000
    N1849    N        0.43491    0.19508    0.97541    1.000
    Si1850   Si       0.39553    0.21168    0.97562    1.000
    N1851    N        0.37696    0.18271    0.94858    1.000
    Si1852   Si       0.43437    0.15474    0.99076    1.000
    N1853    N        0.40495    0.25033    0.95733    1.000
    N1854    N        0.31712    0.32875    0.01542    1.000
    N1855    N        0.25622    0.35610    0.00869    1.000
    Si1856   Si       0.24559    0.33866    0.04848    1.000
    Si1857   Si       0.35928    0.33645    0.00845    1.000
    N1858    N        0.37116    0.37402    0.02797    1.000
    N1859    N        0.38459    0.30258    0.01486    1.000
    N1860    N        0.44991    0.33003    0.03771    1.000
    Si1861   Si       0.42773    0.30215    0.00952    1.000
    Si1862   Si       0.44577    0.37301    0.02498    1.000
    N1863    N        0.43186    0.26162    0.02514    1.000
    Si1864   Si       0.38859    0.25862    0.03154    1.000
    N1865    N        0.31099    0.46066    0.01905    1.000
    N1866    N        0.25458    0.42341    0.03724    1.000
    Si1867   Si       0.26594    0.46443    0.02358    1.000
    Si1868   Si       0.26204    0.39821    0.00151    1.000
    Si1869   Si       0.33631    0.47124    0.05607    1.000
    N1870    N        0.48521    0.38764    0.03573    1.000
    Si1871   Si       0.41351    0.45447    0.04715    1.000
    Si1872   Si       0.46729    0.49136    0.00980    1.000
    N1873    N        0.42365    0.48321    0.01797    1.000
    N1874    N        0.42641    0.41145    0.04783    1.000
    N1875    N        0.34348    0.32099    0.08231    1.000
    N1876    N        0.27934    0.34066    0.07707    1.000
    Si1877   Si       0.34065    0.27751    0.08514    1.000
    N1878    N        0.30209    0.27473    0.06244    1.000
    Si1879   Si       0.35864    0.34905    0.10929    1.000
    Si1880   Si       0.28714    0.36354    0.11498    1.000
    Si1881   Si       0.30881    0.31765    0.05752    1.000
    Si1882   Si       0.47111    0.31914    0.07361    1.000
    N1883    N        0.47792    0.27501    0.07760    1.000
    N1884    N        0.38898    0.37486    0.09432    1.000
    N1885    N        0.44159    0.32785    0.10751    1.000
    Si1886   Si       0.42589    0.36790    0.11423    1.000
    N1887    N        0.31256    0.46099    0.09205    1.000
    Si1888   Si       0.28227    0.49446    0.09411    1.000
    N1889    N        0.26365    0.39950    0.11051    1.000
    N1890    N        0.25956    0.49156    0.05741    1.000
    Si1891   Si       0.28389    0.43584    0.11421    1.000
    Si1892   Si       0.46700    0.41290    0.06903    1.000
    N1893    N        0.46286    0.38953    0.10554    1.000
    N1894    N        0.48948    0.44881    0.06562    1.000
    Si1895   Si       0.47219    0.48587    0.07996    1.000
    Si1896   Si       0.38406    0.40164    0.05998    1.000
    N1897    N        0.36428    0.49202    0.10170    1.000
    N1898    N        0.43082    0.46949    0.08419    1.000
    N1899    N        0.37146    0.44222    0.05472    1.000
    N1900    N        0.26081    0.35100    0.14738    1.000
    N1901    N        0.32704    0.37341    0.12561    1.000
    N1902    N        0.33781    0.26605    0.12934    1.000
    Si1903   Si       0.31074    0.26586    0.16997    1.000
    N1904    N        0.27078    0.28356    0.17162    1.000
    Si1905   Si       0.36875    0.28908    0.15107    1.000
    N1906    N        0.37267    0.33188    0.14705    1.000
    N1907    N        0.40454    0.27252    0.13292    1.000
    N1908    N        0.47542    0.27385    0.14641    1.000
    Si1909   Si       0.44060    0.29786    0.13946    1.000
    N1910    N        0.31171    0.43278    0.14964    1.000
    Si1911   Si       0.33970    0.46527    0.13176    1.000
    Si1912   Si       0.33000    0.39277    0.16318    1.000
    N1913    N        0.32551    0.49629    0.16212    1.000
    N1914    N        0.25460    0.46824    0.11686    1.000
    N1915    N        0.48950    0.49607    0.11721    1.000
    N1916    N        0.42260    0.50858    0.13912    1.000
    N1917    N        0.37979    0.44902    0.14350    1.000
    N1918    N        0.44918    0.44416    0.15267    1.000
    N1919    N        0.42067    0.38450    0.15535    1.000
    Si1920   Si       0.39902    0.41841    0.16856    1.000
    Si1921   Si       0.40283    0.47776    0.11583    1.000
    Si1922   Si       0.45792    0.48556    0.15029    1.000
    Si1923   Si       0.46214    0.40314    0.15696    1.000
    N1924    N        0.34737    0.28348    0.18884    1.000
    N1925    N        0.25645    0.34042    0.21996    1.000
    Si1926   Si       0.25248    0.32331    0.17995    1.000
    Si1927   Si       0.28651    0.37107    0.22810    1.000
    Si1928   Si       0.36172    0.38048    0.22833    1.000
    Si1929   Si       0.39963    0.35263    0.17652    1.000
    Si1930   Si       0.36962    0.29880    0.22324    1.000
    N1931    N        0.38206    0.33979    0.21506    1.000
    Si1932   Si       0.43619    0.30901    0.21552    1.000
    N1933    N        0.47624    0.28734    0.21603    1.000
    N1934    N        0.43140    0.32088    0.17537    1.000
    Si1935   Si       0.48818    0.26082    0.18435    1.000
    N1936    N        0.40909    0.27915    0.23041    1.000
    Si1937   Si       0.28236    0.43235    0.18398    1.000
    Si1938   Si       0.32273    0.49374    0.20628    1.000
    N1939    N        0.29481    0.46117    0.21277    1.000
    N1940    N        0.29880    0.39258    0.19258    1.000
    N1941    N        0.36439    0.49295    0.21864    1.000
    N1942    N        0.24272    0.41917    0.17175    1.000
    N1943    N        0.36730    0.39007    0.18272    1.000
    N1944    N        0.46475    0.39561    0.20173    1.000
    N1945    N        0.40913    0.43554    0.20738    1.000
    Si1946   Si       0.37935    0.45444    0.23129    1.000
    Si1947   Si       0.44685    0.42344    0.22959    1.000
    N1948    N        0.34062    0.29513    0.25707    1.000
    Si1949   Si       0.32758    0.33034    0.27724    1.000
    N1950    N        0.32511    0.35847    0.24539    1.000
    Si1951   Si       0.27564    0.27874    0.28500    1.000
    Si1952   Si       0.48831    0.31582    0.24752    1.000
    N1953    N        0.44919    0.33760    0.24730    1.000
    Si1954   Si       0.43086    0.36438    0.27223    1.000
    N1955    N        0.38845    0.37975    0.27112    1.000
    N1956    N        0.48507    0.29156    0.28116    1.000
    Si1957   Si       0.26647    0.44633    0.24585    1.000
    N1958    N        0.26710    0.40280    0.25071    1.000
    N1959    N        0.27317    0.46103    0.28619    1.000
    N1960    N        0.35401    0.42110    0.24024    1.000
    N1961    N        0.33464    0.48829    0.28313    1.000
    Si1962   Si       0.24594    0.39462    0.28726    1.000
    Si1963   Si       0.43396    0.47735    0.27267    1.000
    N1964    N        0.45959    0.46388    0.23901    1.000
    Si1965   Si       0.37180    0.42034    0.28320    1.000
    N1966    N        0.45226    0.40231    0.26839    1.000
    N1967    N        0.39771    0.45252    0.27154    1.000
    Si1968   Si       0.26539    0.33969    0.32295    1.000
    N1969    N        0.34486    0.35196    0.31337    1.000
    Si1970   Si       0.31444    0.37303    0.33602    1.000
    N1971    N        0.27252    0.26344    0.32868    1.000
    N1972    N        0.28896    0.31837    0.29274    1.000
    N1973    N        0.42139    0.25881    0.29974    1.000
    Si1974   Si       0.38421    0.37049    0.31360    1.000
    N1975    N        0.42090    0.34601    0.31329    1.000
    Si1976   Si       0.46222    0.26849    0.30932    1.000
    N1977    N        0.45980    0.29435    0.34447    1.000
    Si1978   Si       0.38651    0.26004    0.32868    1.000
    Si1979   Si       0.42502    0.31896    0.34627    1.000
    N1980    N        0.38753    0.29822    0.34728    1.000
    N1981    N        0.27490    0.38363    0.31710    1.000
    Si1982   Si       0.31227    0.45915    0.30267    1.000
    N1983    N        0.33430    0.42255    0.30553    1.000
    N1984    N        0.31182    0.46189    0.34742    1.000
    Si1985   Si       0.34696    0.43283    0.34981    1.000
    N1986    N        0.45395    0.46139    0.30864    1.000
    Si1987   Si       0.46817    0.41887    0.30382    1.000
    N1988    N        0.45446    0.39857    0.33906    1.000
    Si1989   Si       0.45407    0.48366    0.34527    1.000
    N1990    N        0.38673    0.41092    0.33017    1.000
    Si1991   Si       0.30925    0.31809    0.38881    1.000
    N1992    N        0.32531    0.27823    0.37965    1.000
    N1993    N        0.34786    0.33890    0.40089    1.000
    N1994    N        0.29356    0.33984    0.35598    1.000
    Si1995   Si       0.37924    0.31493    0.38682    1.000
    N1996    N        0.41860    0.33571    0.38663    1.000
    Si1997   Si       0.33374    0.48881    0.38958    1.000
    Si1998   Si       0.27476    0.45992    0.37136    1.000
    N1999    N        0.26210    0.42418    0.39386    1.000
    N2000    N        0.32934    0.39721    0.36987    1.000
    N2001    N        0.29136    0.48218    0.40362    1.000
    N2002    N        0.36306    0.45458    0.38295    1.000
    N2003    N        0.40829    0.40030    0.39862    1.000
    N2004    N        0.43861    0.45460    0.37403    1.000
    Si2005   Si       0.41973    0.41744    0.35881    1.000
    Si2006   Si       0.28343    0.29669    0.45063    1.000
    N2007    N        0.32090    0.27834    0.44638    1.000
    N2008    N        0.24900    0.27112    0.45713    1.000
    N2009    N        0.29640    0.37592    0.43390    1.000
    Si2010   Si       0.34727    0.26322    0.41568    1.000
    N2011    N        0.27245    0.31617    0.41164    1.000
    Si2012   Si       0.33415    0.38013    0.40967    1.000
    Si2013   Si       0.42620    0.36362    0.41830    1.000
    N2014    N        0.46760    0.36284    0.42858    1.000
    N2015    N        0.40292    0.35587    0.45540    1.000
    N2016    N        0.38620    0.28351    0.41525    1.000
    Si2017   Si       0.41699    0.26538    0.43779    1.000
    N2018    N        0.44095    0.29606    0.45769    1.000
    Si2019   Si       0.25926    0.38647    0.41788    1.000
    N2020    N        0.35381    0.49938    0.42982    1.000
    Si2021   Si       0.27083    0.50277    0.43470    1.000
    N2022    N        0.35573    0.40467    0.43694    1.000
    N2023    N        0.47261    0.42830    0.43953    1.000
    N2024    N        0.41161    0.45493    0.43943    1.000
    Si2025   Si       0.38379    0.43230    0.41490    1.000
    N2026    N        0.46779    0.49437    0.42446    1.000
    Si2027   Si       0.44792    0.45659    0.41653    1.000
    N2028    N        0.34104    0.35856    0.49017    1.000
    N2029    N        0.28132    0.32590    0.48192    1.000
    Si2030   Si       0.29963    0.36557    0.47765    1.000
    Si2031   Si       0.35169    0.32827    0.51637    1.000
    Si2032   Si       0.24417    0.32802    0.50520    1.000
    Si2033   Si       0.41842    0.32551    0.48161    1.000
    N2034    N        0.38161    0.30445    0.49383    1.000
    N2035    N        0.44017    0.33099    0.51945    1.000
    Si2036   Si       0.47768    0.28199    0.47579    1.000
    N2037    N        0.47949    0.27142    0.51779    1.000
    Si2038   Si       0.37240    0.38302    0.47039    1.000
    Si2039   Si       0.38295    0.26064    0.50521    1.000
    N2040    N        0.27243    0.39312    0.49581    1.000
    Si2041   Si       0.33894    0.49738    0.47272    1.000
    N2042    N        0.29646    0.50373    0.47020    1.000
    N2043    N        0.25772    0.45754    0.51928    1.000
    Si2044   Si       0.36055    0.43779    0.51973    1.000
    N2045    N        0.44074    0.46151    0.50315    1.000
    N2046    N        0.38945    0.40993    0.50039    1.000
    N2047    N        0.36726    0.47145    0.49150    1.000
    N2048    N        0.45915    0.39960    0.50409    1.000
    Si2049   Si       0.40774    0.47623    0.47710    1.000
    Si2050   Si       0.47063    0.43601    0.48101    1.000
    Si2051   Si       0.42346    0.42278    0.52468    1.000
    Si2052   Si       0.26147    0.36902    0.57222    1.000
    Si2053   Si       0.32434    0.31710    0.57585    1.000
    N2054    N        0.33492    0.29373    0.53864    1.000
    N2055    N        0.30198    0.35369    0.56463    1.000
    Si2056   Si       0.33354    0.38189    0.55688    1.000
    N2057    N        0.36507    0.35033    0.55309    1.000
    Si2058   Si       0.44779    0.29352    0.53719    1.000
    N2059    N        0.46759    0.30454    0.57493    1.000
    Si2060   Si       0.45933    0.36957    0.53482    1.000
    N2061    N        0.41321    0.26405    0.53477    1.000
    N2062    N        0.26917    0.41143    0.56652    1.000
    N2063    N        0.32620    0.41776    0.53317    1.000
    Si2064   Si       0.30957    0.49160    0.57499    1.000
    Si2065   Si       0.28038    0.42289    0.52760    1.000
    Si2066   Si       0.40477    0.46834    0.58329    1.000
    N2067    N        0.44863    0.46740    0.56941    1.000
    N2068    N        0.39097    0.44699    0.54802    1.000
    N2069    N        0.42954    0.39507    0.55720    1.000
    Si2070   Si       0.45214    0.49058    0.53310    1.000
    N2071    N        0.35031    0.32455    0.61137    1.000
    Si2072   Si       0.26311    0.26972    0.61003    1.000
    N2073    N        0.29578    0.28974    0.59255    1.000
    N2074    N        0.24279    0.29973    0.63310    1.000
    Si2075   Si       0.37327    0.35779    0.59868    1.000
    Si2076   Si       0.45546    0.29037    0.61310    1.000
    N2077    N        0.41234    0.36647    0.61983    1.000
    N2078    N        0.41939    0.26931    0.60298    1.000
    N2079    N        0.34677    0.39139    0.59843    1.000
    N2080    N        0.29093    0.42494    0.63287    1.000
    Si2081   Si       0.33410    0.42811    0.62072    1.000
    Si2082   Si       0.26371    0.43794    0.59916    1.000
    N2083    N        0.26972    0.48049    0.59371    1.000
    N2084    N        0.33400    0.46237    0.59352    1.000
    N2085    N        0.40551    0.43748    0.61336    1.000
    N2086    N        0.46991    0.41156    0.60822    1.000
    Si2087   Si       0.42631    0.50353    0.64184    1.000
    Si2088   Si       0.42802    0.40216    0.59924    1.000
    Si2089   Si       0.47568    0.45450    0.59983    1.000
    N2090    N        0.46197    0.47919    0.63608    1.000
    Si2091   Si       0.30989    0.33737    0.67861    1.000
    N2092    N        0.34898    0.35628    0.68117    1.000
    N2093    N        0.31068    0.29794    0.66300    1.000
    N2094    N        0.28193    0.36093    0.65566    1.000
    Si2095   Si       0.28225    0.26721    0.67690    1.000
    N2096    N        0.24117    0.27111    0.69011    1.000
    Si2097   Si       0.34803    0.29225    0.64028    1.000
    Si2098   Si       0.24543    0.34128    0.64218    1.000
    N2099    N        0.37365    0.29130    0.67579    1.000
    Si2100   Si       0.43478    0.36247    0.65825    1.000
    N2101    N        0.42034    0.34188    0.69342    1.000
    Si2102   Si       0.38080    0.33001    0.69574    1.000
    N2103    N        0.47588    0.38118    0.67134    1.000
    N2104    N        0.45961    0.32257    0.64264    1.000
    Si2105   Si       0.29612    0.50479    0.68154    1.000
    Si2106   Si       0.27671    0.40355    0.66695    1.000
    Si2107   Si       0.34984    0.39816    0.69040    1.000
    N2108    N        0.35509    0.42431    0.65844    1.000
    N2109    N        0.27772    0.47088    0.69761    1.000
    N2110    N        0.33924    0.50929    0.66941    1.000
    Si2111   Si       0.49121    0.47121    0.66721    1.000
    Si2112   Si       0.36951    0.48891    0.69294    1.000
    N2113    N        0.41490    0.40308    0.67523    1.000
    N2114    N        0.40146    0.47590    0.66450    1.000
    Si2115   Si       0.39666    0.43602    0.65450    1.000
    N2116    N        0.29078    0.33474    0.71567    1.000
    Si2117   Si       0.24742    0.33874    0.71853    1.000
    Si2118   Si       0.29645    0.37848    0.73475    1.000
    N2119    N        0.25403    0.37768    0.73602    1.000
    N2120    N        0.27484    0.27283    0.75950    1.000
    N2121    N        0.37388    0.32991    0.73995    1.000
    Si2122   Si       0.44690    0.34269    0.72830    1.000
    N2123    N        0.41148    0.27023    0.73174    1.000
    Si2124   Si       0.44893    0.27352    0.75407    1.000
    Si2125   Si       0.38660    0.29389    0.76140    1.000
    N2126    N        0.48650    0.26545    0.73398    1.000
    N2127    N        0.48561    0.33124    0.71443    1.000
    Si2128   Si       0.30488    0.44611    0.71837    1.000
    N2129    N        0.34555    0.46155    0.71787    1.000
    N2130    N        0.30639    0.40612    0.70133    1.000
    N2131    N        0.46011    0.49939    0.74293    1.000
    Si2132   Si       0.41524    0.40706    0.71708    1.000
    Si2133   Si       0.42020    0.48670    0.74451    1.000
    N2134    N        0.40980    0.44635    0.73520    1.000
    N2135    N        0.44767    0.38708    0.73823    1.000
    N2136    N        0.48197    0.44677    0.70541    1.000
    N2137    N        0.37387    0.39783    0.72887    1.000
    Si2138   Si       0.36892    0.43824    0.74588    1.000
    Si2139   Si       0.48064    0.40186    0.71028    1.000
    Si2140   Si       0.27237    0.29364    0.79803    1.000
    N2141    N        0.27064    0.33781    0.80171    1.000
    Si2142   Si       0.30822    0.35956    0.80550    1.000
    Si2143   Si       0.34846    0.29411    0.81421    1.000
    N2144    N        0.34771    0.27724    0.77114    1.000
    N2145    N        0.32501    0.37656    0.76627    1.000
    N2146    N        0.34589    0.34040    0.81715    1.000
    N2147    N        0.24508    0.27138    0.82251    1.000
    N2148    N        0.40269    0.37170    0.78764    1.000
    Si2149   Si       0.47286    0.32558    0.79708    1.000
    N2150    N        0.39337    0.30267    0.80445    1.000
    N2151    N        0.47476    0.36926    0.79873    1.000
    N2152    N        0.44607    0.31711    0.76410    1.000
    Si2153   Si       0.39041    0.34418    0.82012    1.000
    Si2154   Si       0.36872    0.36723    0.76064    1.000
    N2155    N        0.36014    0.43984    0.78876    1.000
    Si2156   Si       0.25778    0.46014    0.77504    1.000
    Si2157   Si       0.31894    0.42919    0.79570    1.000
    N2158    N        0.25067    0.50257    0.76556    1.000
    N2159    N        0.29410    0.43929    0.75995    1.000
    Si2160   Si       0.44240    0.39145    0.78296    1.000
    Si2161   Si       0.39743    0.45423    0.80410    1.000
    N2162    N        0.40888    0.49207    0.78513    1.000
    N2163    N        0.43532    0.42789    0.80420    1.000
    Si2164   Si       0.30715    0.28151    0.86563    1.000
    N2165    N        0.35320    0.28442    0.86041    1.000
    N2166    N        0.30632    0.28545    0.82085    1.000
    Si2167   Si       0.45039    0.33130    0.87189    1.000
    N2168    N        0.40663    0.33883    0.85945    1.000
    N2169    N        0.45804    0.30720    0.83331    1.000
    N2170    N        0.48194    0.36155    0.87979    1.000
    Si2171   Si       0.42760    0.27933    0.82112    1.000
    Si2172   Si       0.37860    0.31400    0.88098    1.000
    Si2173   Si       0.28744    0.42298    0.85116    1.000
    N2174    N        0.24636    0.41050    0.85539    1.000
    Si2175   Si       0.30774    0.49577    0.84008    1.000
    N2176    N        0.33912    0.49031    0.86616    1.000
    N2177    N        0.31023    0.39708    0.82532    1.000
    N2178    N        0.27217    0.50345    0.86639    1.000
    N2179    N        0.29614    0.45786    0.82056    1.000
    Si2180   Si       0.37888    0.48418    0.87468    1.000
    N2181    N        0.40439    0.46579    0.84556    1.000
    N2182    N        0.48045    0.47535    0.83116    1.000
    Si2183   Si       0.44542    0.45168    0.84065    1.000
    N2184    N        0.44609    0.42585    0.87549    1.000
    Si2185   Si       0.26621    0.34011    0.91643    1.000
    N2186    N        0.35089    0.33829    0.90325    1.000
    N2187    N        0.29048    0.30895    0.89492    1.000
    Si2188   Si       0.32192    0.31473    0.92594    1.000
    N2189    N        0.26165    0.25698    0.93018    1.000
    Si2190   Si       0.36464    0.37032    0.92643    1.000
    N2191    N        0.46081    0.30838    0.90881    1.000
    N2192    N        0.39659    0.29008    0.91080    1.000
    Si2193   Si       0.36932    0.26076    0.93164    1.000
    Si2194   Si       0.43190    0.27982    0.93578    1.000
    N2195    N        0.26946    0.38211    0.91148    1.000
    Si2196   Si       0.33376    0.44286    0.91051    1.000
    N2197    N        0.33653    0.40107    0.92222    1.000
    Si2198   Si       0.26839    0.47277    0.89662    1.000
    N2199    N        0.29732    0.44279    0.88893    1.000
    N2200    N        0.27411    0.49730    0.93030    1.000
    N2201    N        0.40518    0.38506    0.91947    1.000
    N2202    N        0.37931    0.45447    0.90995    1.000
    Si2203   Si       0.48239    0.40466    0.87789    1.000
    Si2204   Si       0.41428    0.42703    0.90541    1.000
    N2205    N        0.48033    0.49476    0.92181    1.000
    N2206    N        0.29649    0.34094    0.95037    1.000
    Si2207   Si       0.28246    0.32776    0.98917    1.000
    N2208    N        0.26825    0.28653    0.98945    1.000
    Si2209   Si       0.29198    0.25812    0.96103    1.000
    N2210    N        0.32955    0.27744    0.94560    1.000
    N2211    N        0.36466    0.35907    0.96827    1.000
    N2212    N        0.44423    0.30414    0.97031    1.000
    Si2213   Si       0.47745    0.32222    0.94806    1.000
    N2214    N        0.47467    0.36650    0.94855    1.000
    Si2215   Si       0.30048    0.38371    0.94174    1.000
    N2216    N        0.32965    0.46537    0.95028    1.000
    N2217    N        0.30004    0.40416    0.98004    1.000
    Si2218   Si       0.32741    0.43719    0.98547    1.000
    Si2219   Si       0.31049    0.50639    0.94985    1.000
    Si2220   Si       0.38415    0.39371    0.99165    1.000
    Si2221   Si       0.37391    0.46795    0.95365    1.000
    N2222    N        0.42430    0.38303    0.98798    1.000
    N2223    N        0.37100    0.43272    0.98183    1.000
    N2224    N        0.44004    0.43155    0.94147    1.000
    Si2225   Si       0.47681    0.45532    0.93955    1.000
    Si2226   Si       0.43859    0.38835    0.94826    1.000
    N2227    N        0.48642    0.46083    0.98349    1.000
    N2228    N        0.34001    0.57433    0.01439    1.000
    Si2229   Si       0.31099    0.54219    0.02581    1.000
    N2230    N        0.27274    0.56226    0.03314    1.000
    N2231    N        0.33136    0.51436    0.05222    1.000
    Si2232   Si       0.25279    0.57277    0.99410    1.000
    Si2233   Si       0.24055    0.58236    0.05534    1.000
    Si2234   Si       0.31821    0.60862    0.99631    1.000
    Si2235   Si       0.37672    0.57591    0.03674    1.000
    N2236    N        0.47333    0.58279    0.00869    1.000
    N2237    N        0.40655    0.54980    0.01592    1.000
    N2238    N        0.40257    0.61218    0.03395    1.000
    N2239    N        0.47991    0.51300    0.04401    1.000
    Si2240   Si       0.43128    0.58601    0.00926    1.000
    N2241    N        0.30587    0.63270    0.02944    1.000
    Si2242   Si       0.30465    0.67429    0.01239    1.000
    Si2243   Si       0.25413    0.72383    0.02335    1.000
    N2244    N        0.26786    0.68302    0.03570    1.000
    N2245    N        0.33493    0.69959    0.03139    1.000
    N2246    N        0.28413    0.75003    0.03835    1.000
    N2247    N        0.46915    0.65134    0.99989    1.000
    Si2248   Si       0.43751    0.75455    0.02555    1.000
    N2249    N        0.39431    0.74194    0.02452    1.000
    N2250    N        0.39876    0.67567    0.00273    1.000
    Si2251   Si       0.37158    0.70787    0.00682    1.000
    N2252    N        0.44905    0.72183    0.99797    1.000
    Si2253   Si       0.44072    0.68169    0.01389    1.000
    Si2254   Si       0.34700    0.52987    0.09131    1.000
    N2255    N        0.25014    0.61707    0.07757    1.000
    N2256    N        0.30202    0.52868    0.11017    1.000
    N2257    N        0.36715    0.56814    0.07738    1.000
    N2258    N        0.44513    0.62561    0.09836    1.000
    Si2259   Si       0.48489    0.60973    0.09654    1.000
    N2260    N        0.37818    0.63262    0.09411    1.000
    Si2261   Si       0.27664    0.64507    0.05855    1.000
    Si2262   Si       0.31414    0.72506    0.06111    1.000
    N2263    N        0.29030    0.71919    0.09848    1.000
    N2264    N        0.30025    0.65396    0.09623    1.000
    N2265    N        0.34474    0.75479    0.07434    1.000
    Si2266   Si       0.33911    0.64346    0.10951    1.000
    Si2267   Si       0.45821    0.70327    0.07822    1.000
    Si2268   Si       0.41301    0.63739    0.07050    1.000
    N2269    N        0.45549    0.74461    0.06385    1.000
    N2270    N        0.43213    0.67507    0.05769    1.000
    N2271    N        0.25776    0.60174    0.15138    1.000
    Si2272   Si       0.31868    0.53683    0.14973    1.000
    N2273    N        0.33150    0.60556    0.12992    1.000
    Si2274   Si       0.30047    0.60601    0.16049    1.000
    N2275    N        0.35897    0.54776    0.13594    1.000
    N2276    N        0.41217    0.58109    0.13411    1.000
    Si2277   Si       0.39862    0.54355    0.15166    1.000
    Si2278   Si       0.44244    0.61133    0.14065    1.000
    N2279    N        0.48361    0.59879    0.14038    1.000
    Si2280   Si       0.36998    0.58949    0.11524    1.000
    Si2281   Si       0.28679    0.74286    0.13471    1.000
    N2282    N        0.28474    0.70424    0.15942    1.000
    N2283    N        0.34140    0.67247    0.14089    1.000
    Si2284   Si       0.27710    0.68439    0.12039    1.000
    N2285    N        0.45758    0.70973    0.12167    1.000
    Si2286   Si       0.37106    0.69832    0.15934    1.000
    Si2287   Si       0.42292    0.72352    0.14473    1.000
    N2288    N        0.38047    0.73056    0.13246    1.000
    N2289    N        0.41116    0.68614    0.16467    1.000
    Si2290   Si       0.28883    0.56487    0.21848    1.000
    Si2291   Si       0.33156    0.62794    0.22460    1.000
    N2292    N        0.30514    0.56580    0.17843    1.000
    N2293    N        0.24475    0.57150    0.21945    1.000
    Si2294   Si       0.39073    0.52599    0.23013    1.000
    N2295    N        0.37087    0.60936    0.22436    1.000
    Si2296   Si       0.40816    0.59154    0.20602    1.000
    N2297    N        0.40183    0.55058    0.19471    1.000
    N2298    N        0.43199    0.62214    0.18338    1.000
    N2299    N        0.31003    0.63754    0.18798    1.000
    N2300    N        0.34844    0.70127    0.19570    1.000
    Si2301   Si       0.31501    0.67958    0.17564    1.000
    Si2302   Si       0.43160    0.66362    0.19451    1.000
    N2303    N        0.46945    0.67510    0.21229    1.000
    N2304    N        0.40804    0.68018    0.22856    1.000
    Si2305   Si       0.32946    0.52730    0.26891    1.000
    N2306    N        0.30689    0.59721    0.24258    1.000
    Si2307   Si       0.28736    0.61250    0.27988    1.000
    N2308    N        0.25388    0.58574    0.28619    1.000
    N2309    N        0.36430    0.54841    0.25711    1.000
    N2310    N        0.30621    0.52561    0.23217    1.000
    N2311    N        0.48503    0.52746    0.24274    1.000
    Si2312   Si       0.38160    0.58657    0.26049    1.000
    N2313    N        0.42684    0.58268    0.24696    1.000
    Si2314   Si       0.45249    0.54937    0.26042    1.000
    N2315    N        0.42162    0.51619    0.25902    1.000
    Si2316   Si       0.43727    0.60328    0.28543    1.000
    N2317    N        0.46500    0.63696    0.28546    1.000
    Si2318   Si       0.32548    0.74519    0.26774    1.000
    N2319    N        0.27162    0.65108    0.27294    1.000
    N2320    N        0.33350    0.66530    0.24625    1.000
    Si2321   Si       0.30522    0.67834    0.27834    1.000
    Si2322   Si       0.25157    0.73283    0.26090    1.000
    N2323    N        0.29121    0.71815    0.26711    1.000
    N2324    N        0.44799    0.74233    0.23376    1.000
    N2325    N        0.36636    0.72455    0.26269    1.000
    N2326    N        0.43286    0.70033    0.28632    1.000
    Si2327   Si       0.36607    0.69126    0.23438    1.000
    Si2328   Si       0.45235    0.70089    0.24776    1.000
    N2329    N        0.31571    0.61656    0.31261    1.000
    Si2330   Si       0.31481    0.57807    0.33327    1.000
    N2331    N        0.30945    0.54897    0.30158    1.000
    Si2332   Si       0.24594    0.58158    0.32825    1.000
    Si2333   Si       0.38767    0.60741    0.33960    1.000
    N2334    N        0.45971    0.56890    0.30069    1.000
    Si2335   Si       0.44714    0.56080    0.34114    1.000
    N2336    N        0.39735    0.60425    0.29684    1.000
    N2337    N        0.43346    0.52072    0.34680    1.000
    N2338    N        0.33384    0.75568    0.30914    1.000
    Si2339   Si       0.33916    0.72204    0.33522    1.000
    N2340    N        0.32455    0.68350    0.31711    1.000
    Si2341   Si       0.32772    0.64758    0.33947    1.000
    Si2342   Si       0.45881    0.67280    0.30658    1.000
    N2343    N        0.38449    0.71461    0.33315    1.000
    Si2344   Si       0.40074    0.72626    0.29470    1.000
    N2345    N        0.43530    0.66267    0.34374    1.000
    N2346    N        0.32578    0.53131    0.38019    1.000
    Si2347   Si       0.29141    0.55885    0.39376    1.000
    N2348    N        0.27969    0.58085    0.35806    1.000
    Si2349   Si       0.35205    0.56616    0.38816    1.000
    Si2350   Si       0.26648    0.62154    0.37577    1.000
    N2351    N        0.35515    0.58230    0.34902    1.000
    N2352    N        0.42470    0.59231    0.35981    1.000
    Si2353   Si       0.42375    0.58231    0.40306    1.000
    N2354    N        0.48871    0.56619    0.35876    1.000
    Si2355   Si       0.44075    0.63276    0.37417    1.000
    Si2356   Si       0.32130    0.75816    0.39683    1.000
    N2357    N        0.29969    0.64875    0.37185    1.000
    N2358    N        0.32874    0.71881    0.37789    1.000
    N2359    N        0.25261    0.73837    0.39584    1.000
    Si2360   Si       0.31756    0.67949    0.40124    1.000
    N2361    N        0.48217    0.63384    0.38532    1.000
    N2362    N        0.37105    0.64602    0.35095    1.000
    N2363    N        0.40356    0.68965    0.39819    1.000
    Si2364   Si       0.39669    0.68045    0.35511    1.000
    N2365    N        0.47865    0.72082    0.39395    1.000
    Si2366   Si       0.48590    0.74821    0.36057    1.000
    Si2367   Si       0.32586    0.62074    0.43959    1.000
    N2368    N        0.26347    0.54447    0.42137    1.000
    N2369    N        0.32229    0.58610    0.41258    1.000
    N2370    N        0.28931    0.62907    0.46273    1.000
    N2371    N        0.24129    0.61256    0.41082    1.000
    Si2372   Si       0.45567    0.52926    0.44743    1.000
    N2373    N        0.45750    0.56265    0.41880    1.000
    Si2374   Si       0.38039    0.53240    0.44360    1.000
    N2375    N        0.38771    0.56045    0.41174    1.000
    N2376    N        0.41577    0.51856    0.46411    1.000
    N2377    N        0.48298    0.61793    0.46633    1.000
    N2378    N        0.41541    0.62503    0.40828    1.000
    N2379    N        0.34613    0.65452    0.42300    1.000
    N2380    N        0.28735    0.68996    0.43072    1.000
    Si2381   Si       0.27219    0.72995    0.43457    1.000
    Si2382   Si       0.27045    0.66724    0.46496    1.000
    N2383    N        0.42327    0.75525    0.42114    1.000
    N2384    N        0.45721    0.69428    0.44385    1.000
    Si2385   Si       0.38945    0.65536    0.42537    1.000
    Si2386   Si       0.43716    0.71604    0.41063    1.000
    Si2387   Si       0.27010    0.60412    0.49237    1.000
    Si2388   Si       0.34029    0.57261    0.49569    1.000
    N2389    N        0.29692    0.56946    0.49838    1.000
    Si2390   Si       0.28308    0.52818    0.50228    1.000
    N2391    N        0.35267    0.60568    0.47191    1.000
    N2392    N        0.36125    0.53770    0.48290    1.000
    N2393    N        0.24056    0.51880    0.50062    1.000
    N2394    N        0.25760    0.62957    0.52861    1.000
    N2395    N        0.47734    0.54790    0.48131    1.000
    Si2396   Si       0.39064    0.61874    0.49043    1.000
    N2397    N        0.41610    0.58186    0.49014    1.000
    Si2398   Si       0.40220    0.54277    0.49881    1.000
    Si2399   Si       0.45959    0.58628    0.48888    1.000
    N2400    N        0.28070    0.68468    0.50312    1.000
    Si2401   Si       0.31118    0.71374    0.51847    1.000
    N2402    N        0.35128    0.69955    0.51470    1.000
    N2403    N        0.30852    0.75589    0.50839    1.000
    Si2404   Si       0.37954    0.73154    0.50744    1.000
    N2405    N        0.41866    0.71194    0.50124    1.000
    N2406    N        0.40445    0.65377    0.46543    1.000
    N2407    N        0.36826    0.75487    0.47406    1.000
    N2408    N        0.46945    0.67268    0.51082    1.000
    Si2409   Si       0.43667    0.68012    0.47824    1.000
    Si2410   Si       0.25540    0.59783    0.56128    1.000
    Si2411   Si       0.31784    0.55608    0.56221    1.000
    N2412    N        0.34982    0.57497    0.53832    1.000
    N2413    N        0.30317    0.51902    0.53903    1.000
    N2414    N        0.29497    0.59093    0.57445    1.000
    N2415    N        0.41975    0.52062    0.53219    1.000
    Si2416   Si       0.37554    0.60418    0.55746    1.000
    N2417    N        0.41078    0.58044    0.56635    1.000
    Si2418   Si       0.45310    0.59676    0.56986    1.000
    Si2419   Si       0.42169    0.53960    0.57213    1.000
    N2420    N        0.46556    0.55501    0.57367    1.000
    N2421    N        0.46516    0.60544    0.52821    1.000
    Si2422   Si       0.27806    0.66925    0.54485    1.000
    N2423    N        0.31622    0.65245    0.55465    1.000
    N2424    N        0.29026    0.71469    0.55839    1.000
    Si2425   Si       0.35622    0.67016    0.54687    1.000
    N2426    N        0.24037    0.75247    0.53085    1.000
    N2427    N        0.36346    0.69471    0.58223    1.000
    N2428    N        0.37920    0.63597    0.52988    1.000
    Si2429   Si       0.39584    0.72320    0.57871    1.000
    N2430    N        0.47993    0.73256    0.53853    1.000
    N2431    N        0.38627    0.75298    0.54623    1.000
    N2432    N        0.43030    0.69483    0.57090    1.000
    Si2433   Si       0.44873    0.70214    0.53447    1.000
    N2434    N        0.35597    0.61417    0.59471    1.000
    N2435    N        0.32708    0.52834    0.59461    1.000
    Si2436   Si       0.32592    0.53450    0.63591    1.000
    Si2437   Si       0.31507    0.62697    0.58960    1.000
    Si2438   Si       0.36119    0.60455    0.63638    1.000
    N2439    N        0.24277    0.55065    0.60267    1.000
    Si2440   Si       0.24167    0.58519    0.62968    1.000
    Si2441   Si       0.25182    0.51159    0.61618    1.000
    Si2442   Si       0.43124    0.62083    0.63869    1.000
    N2443    N        0.45951    0.61687    0.60729    1.000
    N2444    N        0.40127    0.59010    0.63774    1.000
    N2445    N        0.40706    0.50746    0.60039    1.000
    Si2446   Si       0.33599    0.69094    0.61661    1.000
    N2447    N        0.31766    0.73016    0.62145    1.000
    N2448    N        0.24674    0.73947    0.59963    1.000
    N2449    N        0.30871    0.65732    0.62057    1.000
    Si2450   Si       0.28882    0.74190    0.59214    1.000
    N2451    N        0.24051    0.66969    0.63764    1.000
    N2452    N        0.41485    0.65885    0.63703    1.000
    N2453    N        0.46829    0.70450    0.63391    1.000
    N2454    N        0.41248    0.73125    0.61875    1.000
    Si2455   Si       0.43241    0.69044    0.61273    1.000
    Si2456   Si       0.29781    0.58077    0.67705    1.000
    N2457    N        0.27118    0.60670    0.65517    1.000
    N2458    N        0.33139    0.57497    0.64841    1.000
    N2459    N        0.28483    0.51937    0.64314    1.000
    N2460    N        0.36388    0.63139    0.67132    1.000
    Si2461   Si       0.47571    0.55260    0.67972    1.000
    N2462    N        0.43682    0.53821    0.66394    1.000
    Si2463   Si       0.41369    0.57390    0.67544    1.000
    N2464    N        0.44796    0.60686    0.67639    1.000
    Si2465   Si       0.34142    0.73804    0.65816    1.000
    N2466    N        0.31182    0.73306    0.68980    1.000
    N2467    N        0.28670    0.66545    0.68964    1.000
    Si2468   Si       0.27993    0.70769    0.69645    1.000
    N2469    N        0.24133    0.72612    0.68444    1.000
    N2470    N        0.35899    0.69859    0.65367    1.000
    Si2471   Si       0.27845    0.65181    0.64977    1.000
    Si2472   Si       0.38573    0.66840    0.66908    1.000
    N2473    N        0.43116    0.75503    0.68332    1.000
    N2474    N        0.37431    0.74275    0.70383    1.000
    Si2475   Si       0.44925    0.74436    0.64418    1.000
    Si2476   Si       0.30598    0.56319    0.73669    1.000
    N2477    N        0.31261    0.60060    0.71244    1.000
    Si2478   Si       0.35527    0.60986    0.70781    1.000
    N2479    N        0.34381    0.55371    0.75340    1.000
    N2480    N        0.24510    0.62270    0.72892    1.000
    N2481    N        0.29338    0.54309    0.70140    1.000
    Si2482   Si       0.23761    0.58696    0.75352    1.000
    Si2483   Si       0.38509    0.55026    0.74106    1.000
    Si2484   Si       0.46611    0.60905    0.71514    1.000
    N2485    N        0.47212    0.56719    0.72007    1.000
    N2486    N        0.43777    0.62288    0.74708    1.000
    Si2487   Si       0.46301    0.54088    0.75424    1.000
    N2488    N        0.38398    0.57698    0.70625    1.000
    N2489    N        0.39240    0.51249    0.72202    1.000
    N2490    N        0.36793    0.62816    0.74717    1.000
    Si2491   Si       0.28602    0.63608    0.72171    1.000
    N2492    N        0.34144    0.71012    0.75215    1.000
    Si2493   Si       0.33659    0.74339    0.72539    1.000
    N2494    N        0.27414    0.71007    0.73933    1.000
    Si2495   Si       0.24139    0.74001    0.74335    1.000
    N2496    N        0.30564    0.64797    0.75742    1.000
    N2497    N        0.40625    0.67885    0.70726    1.000
    Si2498   Si       0.41220    0.72260    0.70871    1.000
    N2499    N        0.41993    0.73200    0.75151    1.000
    Si2500   Si       0.40758    0.65426    0.74560    1.000
    Si2501   Si       0.26894    0.53458    0.79148    1.000
    N2502    N        0.32760    0.59166    0.80599    1.000
    N2503    N        0.30841    0.52327    0.80512    1.000
    Si2504   Si       0.33907    0.55048    0.79701    1.000
    Si2505   Si       0.33739    0.62651    0.77879    1.000
    N2506    N        0.27465    0.56915    0.76615    1.000
    Si2507   Si       0.42994    0.59727    0.78207    1.000
    N2508    N        0.46440    0.59641    0.80820    1.000
    N2509    N        0.39910    0.61399    0.80621    1.000
    N2510    N        0.42237    0.55419    0.76729    1.000
    Si2511   Si       0.41356    0.52902    0.80541    1.000
    N2512    N        0.37575    0.54812    0.81889    1.000
    N2513    N        0.36657    0.74540    0.79896    1.000
    N2514    N        0.34482    0.65457    0.81084    1.000
    N2515    N        0.28973    0.69662    0.80429    1.000
    Si2516   Si       0.25540    0.72146    0.81145    1.000
    N2517    N        0.24542    0.75298    0.78487    1.000
    Si2518   Si       0.30351    0.69169    0.76412    1.000
    Si2519   Si       0.45821    0.73888    0.77071    1.000
    Si2520   Si       0.38199    0.71630    0.77144    1.000
    Si2521   Si       0.38675    0.65386    0.81743    1.000
    N2522    N        0.40002    0.67696    0.78128    1.000
    N2523    N        0.47654    0.70506    0.78956    1.000
    Si2524   Si       0.31513    0.60129    0.84801    1.000
    N2525    N        0.30039    0.56317    0.86271    1.000
    N2526    N        0.35419    0.60681    0.86296    1.000
    Si2527   Si       0.25703    0.54560    0.86596    1.000
    Si2528   Si       0.25114    0.62940    0.86831    1.000
    Si2529   Si       0.38424    0.58742    0.83727    1.000
    N2530    N        0.41987    0.58491    0.86189    1.000
    Si2531   Si       0.45470    0.60823    0.84820    1.000
    N2532    N        0.43965    0.52823    0.83983    1.000
    Si2533   Si       0.48220    0.51866    0.83004    1.000
    Si2534   Si       0.42787    0.54592    0.87910    1.000
    N2535    N        0.32166    0.69444    0.86513    1.000
    N2536    N        0.28883    0.63826    0.84644    1.000
    Si2537   Si       0.31036    0.67056    0.83150    1.000
    N2538    N        0.26453    0.73233    0.85299    1.000
    Si2539   Si       0.30140    0.73020    0.87747    1.000
    Si2540   Si       0.47086    0.68312    0.82689    1.000
    N2541    N        0.44782    0.65059    0.84546    1.000
    N2542    N        0.38773    0.67035    0.85908    1.000
    N2543    N        0.46884    0.71696    0.85405    1.000
    Si2544   Si       0.46016    0.75899    0.84640    1.000
    N2545    N        0.31662    0.60165    0.91550    1.000
    Si2546   Si       0.30957    0.55989    0.90410    1.000
    N2547    N        0.33361    0.53180    0.92595    1.000
    N2548    N        0.27006    0.56150    0.92021    1.000
    Si2549   Si       0.35637    0.61511    0.90680    1.000
    Si2550   Si       0.27418    0.60120    0.93445    1.000
    Si2551   Si       0.24149    0.52847    0.92942    1.000
    N2552    N        0.25093    0.62798    0.91230    1.000
    Si2553   Si       0.37726    0.53865    0.92863    1.000
    N2554    N        0.39394    0.52171    0.89119    1.000
    N2555    N        0.38063    0.58290    0.92614    1.000
    N2556    N        0.44304    0.55702    0.92092    1.000
    Si2557   Si       0.42249    0.59486    0.93104    1.000
    Si2558   Si       0.47942    0.62650    0.91172    1.000
    N2559    N        0.43538    0.63058    0.90994    1.000
    N2560    N        0.48711    0.60188    0.87671    1.000
    N2561    N        0.30022    0.72725    0.92263    1.000
    Si2562   Si       0.36019    0.68807    0.88479    1.000
    N2563    N        0.35438    0.65713    0.91577    1.000
    Si2564   Si       0.34396    0.73317    0.93394    1.000
    Si2565   Si       0.42342    0.66183    0.88145    1.000
    Si2566   Si       0.47590    0.70270    0.89450    1.000
    Si2567   Si       0.41321    0.73978    0.90471    1.000
    N2568    N        0.43265    0.69993    0.90180    1.000
    N2569    N        0.37337    0.72545    0.90534    1.000
    N2570    N        0.48580    0.72059    0.93298    1.000
    N2571    N        0.28244    0.59878    0.97590    1.000
    N2572    N        0.30291    0.52375    0.98757    1.000
    N2573    N        0.35147    0.63165    0.97963    1.000
    N2574    N        0.38649    0.50874    0.95885    1.000
    N2575    N        0.45388    0.52171    0.98056    1.000
    N2576    N        0.42029    0.60936    0.97383    1.000
    Si2577   Si       0.41234    0.51577    0.99092    1.000
    Si2578   Si       0.47274    0.53502    0.94389    1.000
    Si2579   Si       0.39119    0.63345    0.99530    1.000
    N2580    N        0.35204    0.70607    0.96665    1.000
    Si2581   Si       0.34010    0.66617    0.95515    1.000
    N2582    N        0.29863    0.66989    0.96768    1.000
    Si2583   Si       0.27608    0.70235    0.94786    1.000
    N2584    N        0.25726    0.72618    0.98088    1.000
    Si2585   Si       0.46304    0.74260    0.96203    1.000
    N2586    N        0.33567    0.78740    0.01644    1.000
    N2587    N        0.27886    0.82657    0.01403    1.000
    N2588    N        0.33317    0.86304    0.03433    1.000
    Si2589   Si       0.29706    0.79044    0.03309    1.000
    Si2590   Si       0.36622    0.77217    0.04188    1.000
    N2591    N        0.41803    0.86157    0.03526    1.000
    N2592    N        0.45094    0.80088    0.02571    1.000
    Si2593   Si       0.41293    0.82031    0.02355    1.000
    Si2594   Si       0.48466    0.82828    0.03547    1.000
    N2595    N        0.27124    0.92150    0.01388    1.000
    Si2596   Si       0.24736    0.89934    0.04047    1.000
    N2597    N        0.36539    0.95321    0.99835    1.000
    Si2598   Si       0.26570    0.96139    0.99925    1.000
    Si2599   Si       0.40308    0.89907    0.01778    1.000
    N2600    N        0.37261    0.91495    0.04959    1.000
    N2601    N        0.48130    0.97188    0.00015    1.000
    N2602    N        0.43856    0.92481    0.02232    1.000
    Si2603   Si       0.47851    0.92831    0.00706    1.000
    Si2604   Si       0.36540    0.95463    0.04017    1.000
    N2605    N        0.29474    0.81085    0.07381    1.000
    N2606    N        0.26356    0.87116    0.06760    1.000
    Si2607   Si       0.25914    0.80005    0.09836    1.000
    Si2608   Si       0.24717    0.87053    0.10831    1.000
    N2609    N        0.36595    0.86004    0.09577    1.000
    Si2610   Si       0.29575    0.84867    0.05180    1.000
    Si2611   Si       0.39098    0.82612    0.09559    1.000
    Si2612   Si       0.43854    0.87431    0.07284    1.000
    N2613    N        0.42724    0.84553    0.10529    1.000
    N2614    N        0.38955    0.80389    0.05920    1.000
    N2615    N        0.47906    0.86252    0.06217    1.000
    Si2616   Si       0.34727    0.88782    0.06816    1.000
    N2617    N        0.32288    0.90536    0.10088    1.000
    N2618    N        0.24469    0.99655    0.07718    1.000
    Si2619   Si       0.26324    0.98833    0.11520    1.000
    N2620    N        0.43389    0.91390    0.08877    1.000
    Si2621   Si       0.38717    0.00391    0.08751    1.000
    Si2622   Si       0.43186    0.94722    0.05946    1.000
    N2623    N        0.46455    0.97153    0.07125    1.000
    N2624    N        0.39955    0.97689    0.05745    1.000
    N2625    N        0.33463    0.84643    0.15413    1.000
    N2626    N        0.32207    0.76743    0.14382    1.000
    N2627    N        0.25137    0.83231    0.12753    1.000
    Si2628   Si       0.32764    0.80544    0.16426    1.000
    N2629    N        0.25032    0.76656    0.12634    1.000
    Si2630   Si       0.35599    0.76141    0.11642    1.000
    N2631    N        0.38198    0.79557    0.12544    1.000
    Si2632   Si       0.44981    0.85010    0.14210    1.000
    Si2633   Si       0.40049    0.79516    0.16567    1.000
    N2634    N        0.42811    0.75941    0.16865    1.000
    N2635    N        0.48641    0.82892    0.13729    1.000
    Si2636   Si       0.35003    0.88252    0.13446    1.000
    Si2637   Si       0.32551    0.99868    0.13522    1.000
    N2638    N        0.29635    0.96632    0.13129    1.000
    N2639    N        0.26252    0.90182    0.13574    1.000
    Si2640   Si       0.29946    0.92307    0.13346    1.000
    N2641    N        0.32353    0.90491    0.16550    1.000
    N2642    N        0.36168    0.98256    0.11559    1.000
    N2643    N        0.45163    0.89191    0.15329    1.000
    N2644    N        0.38361    0.91263    0.13771    1.000
    N2645    N        0.42342    0.96170    0.14273    1.000
    Si2646   Si       0.44558    0.00033    0.13848    1.000
    Si2647   Si       0.42817    0.91992    0.13127    1.000
    Si2648   Si       0.37964    0.95643    0.14490    1.000
    N2649    N        0.48577    0.00607    0.11889    1.000
    N2650    N        0.28874    0.81353    0.18556    1.000
    Si2651   Si       0.31338    0.86580    0.18887    1.000
    N2652    N        0.34719    0.84744    0.21851    1.000
    Si2653   Si       0.28237    0.79438    0.22605    1.000
    N2654    N        0.25145    0.76355    0.23160    1.000
    N2655    N        0.36406    0.79613    0.18826    1.000
    Si2656   Si       0.24677    0.82225    0.17028    1.000
    Si2657   Si       0.46094    0.76059    0.19725    1.000
    N2658    N        0.48133    0.80079    0.20263    1.000
    Si2659   Si       0.44990    0.83098    0.20966    1.000
    N2660    N        0.45857    0.87289    0.21691    1.000
    N2661    N        0.42734    0.82837    0.17311    1.000
    N2662    N        0.28960    0.88371    0.22287    1.000
    Si2663   Si       0.32945    0.93640    0.19562    1.000
    N2664    N        0.35462    0.96758    0.17889    1.000
    N2665    N        0.29026    0.95377    0.20182    1.000
    N2666    N        0.35432    0.91970    0.22835    1.000
    Si2667   Si       0.35731    0.00498    0.20432    1.000
    N2668    N        0.48222    0.93950    0.21215    1.000
    Si2669   Si       0.47562    0.90226    0.18856    1.000
    N2670    N        0.27017    0.82706    0.25171    1.000
    N2671    N        0.32007    0.77853    0.23910    1.000
    Si2672   Si       0.25207    0.86472    0.23501    1.000
    N2673    N        0.27094    0.87896    0.28968    1.000
    Si2674   Si       0.35296    0.80734    0.23040    1.000
    Si2675   Si       0.36073    0.87898    0.24419    1.000
    N2676    N        0.46335    0.88310    0.28687    1.000
    N2677    N        0.48474    0.79149    0.27311    1.000
    N2678    N        0.36638    0.81156    0.27230    1.000
    Si2679   Si       0.44565    0.77696    0.26018    1.000
    N2680    N        0.40027    0.87002    0.25807    1.000
    N2681    N        0.42636    0.81028    0.24016    1.000
    Si2682   Si       0.40502    0.82963    0.27311    1.000
    N2683    N        0.33563    0.88267    0.27888    1.000
    Si2684   Si       0.29785    0.90132    0.26448    1.000
    N2685    N        0.28808    0.94322    0.26737    1.000
    N2686    N        0.25832    0.00502    0.24027    1.000
    N2687    N        0.31667    0.00413    0.28412    1.000
    Si2688   Si       0.26530    0.96177    0.23450    1.000
    Si2689   Si       0.43806    0.89112    0.25114    1.000
    N2690    N        0.47915    0.95343    0.27905    1.000
    N2691    N        0.37891    0.98764    0.24075    1.000
    Si2692   Si       0.38101    0.94530    0.25254    1.000
    N2693    N        0.44773    0.99617    0.23567    1.000
    Si2694   Si       0.45764    0.95637    0.24086    1.000
    N2695    N        0.42247    0.93086    0.24644    1.000
    N2696    N        0.30993    0.81858    0.31769    1.000
    Si2697   Si       0.34476    0.79790    0.30884    1.000
    Si2698   Si       0.27597    0.83519    0.29562    1.000
    N2699    N        0.37495    0.79640    0.33985    1.000
    N2700    N        0.42866    0.82846    0.30944    1.000
    Si2701   Si       0.45668    0.85741    0.32198    1.000
    Si2702   Si       0.41782    0.79090    0.32914    1.000
    N2703    N        0.41903    0.76535    0.29266    1.000
    Si2704   Si       0.29988    0.96435    0.30398    1.000
    N2705    N        0.31036    0.92695    0.32595    1.000
    Si2706   Si       0.34764    0.90997    0.31111    1.000
    N2707    N        0.28373    0.99298    0.33223    1.000
    N2708    N        0.35658    0.00298    0.34078    1.000
    Si2709   Si       0.23630    0.90448    0.29384    1.000
    Si2710   Si       0.38627    0.97339    0.32118    1.000
    Si2711   Si       0.46279    0.98191    0.30419    1.000
    N2712    N        0.41933    0.99412    0.30333    1.000
    N2713    N        0.36542    0.94498    0.29298    1.000
    N2714    N        0.37132    0.89238    0.34294    1.000
    N2715    N        0.29721    0.78780    0.37590    1.000
    Si2716   Si       0.25693    0.77978    0.38772    1.000
    Si2717   Si       0.30923    0.82804    0.36031    1.000
    N2718    N        0.34374    0.84282    0.38254    1.000
    N2719    N        0.28131    0.86229    0.35901    1.000
    Si2720   Si       0.35404    0.88422    0.38509    1.000
    N2721    N        0.36025    0.77661    0.40586    1.000
    N2722    N        0.45025    0.77455    0.35639    1.000
    Si2723   Si       0.37246    0.80941    0.38014    1.000
    N2724    N        0.41446    0.81968    0.38926    1.000
    Si2725   Si       0.44301    0.78699    0.39779    1.000
    Si2726   Si       0.29053    0.90570    0.35834    1.000
    Si2727   Si       0.26089    0.99080    0.37031    1.000
    N2728    N        0.32075    0.91144    0.39085    1.000
    N2729    N        0.26356    0.92999    0.38161    1.000
    N2730    N        0.29207    0.98582    0.40154    1.000
    N2731    N        0.39010    0.89515    0.40532    1.000
    Si2732   Si       0.47575    0.90528    0.37272    1.000
    N2733    N        0.45885    0.94113    0.39288    1.000
    N2734    N        0.41207    0.00419    0.38608    1.000
    Si2735   Si       0.40603    0.90643    0.36317    1.000
    N2736    N        0.44258    0.88375    0.35340    1.000
    Si2737   Si       0.43701    0.97100    0.36981    1.000
    N2738    N        0.40673    0.94717    0.34932    1.000
    N2739    N        0.47071    0.98483    0.34732    1.000
    N2740    N        0.25204    0.80599    0.42401    1.000
    N2741    N        0.25300    0.85959    0.46202    1.000
    N2742    N        0.30587    0.75690    0.43860    1.000
    Si2743   Si       0.42669    0.83537    0.42708    1.000
    N2744    N        0.44258    0.87276    0.43711    1.000
    Si2745   Si       0.38887    0.77378    0.44043    1.000
    N2746    N        0.40004    0.81382    0.45242    1.000
    N2747    N        0.46675    0.81107    0.42602    1.000
    Si2748   Si       0.48318    0.85582    0.43060    1.000
    N2749    N        0.29597    0.93119    0.45250    1.000
    Si2750   Si       0.29381    0.94259    0.41073    1.000
    N2751    N        0.45860    0.99892    0.43599    1.000
    Si2752   Si       0.40878    0.89872    0.44472    1.000
    N2753    N        0.42650    0.93547    0.45761    1.000
    N2754    N        0.39281    0.99843    0.45597    1.000
    Si2755   Si       0.45746    0.95409    0.43582    1.000
    Si2756   Si       0.30879    0.83712    0.50913    1.000
    N2757    N        0.27459    0.81175    0.50446    1.000
    N2758    N        0.33521    0.81730    0.47999    1.000
    Si2759   Si       0.32668    0.77572    0.47348    1.000
    N2760    N        0.31138    0.88035    0.49949    1.000
    Si2761   Si       0.25386    0.81605    0.46667    1.000
    Si2762   Si       0.37581    0.83395    0.48130    1.000
    N2763    N        0.47074    0.78519    0.49095    1.000
    N2764    N        0.38624    0.87594    0.47601    1.000
    N2765    N        0.38754    0.82020    0.52128    1.000
    Si2766   Si       0.30911    0.00806    0.51396    1.000
    Si2767   Si       0.32041    0.95285    0.48143    1.000
    N2768    N        0.32369    0.99616    0.47271    1.000
    Si2769   Si       0.27927    0.89544    0.47442    1.000
    N2770    N        0.30375    0.95584    0.52011    1.000
    N2771    N        0.24343    0.91330    0.49351    1.000
    N2772    N        0.42521    0.98597    0.51137    1.000
    Si2773   Si       0.37715    0.90469    0.50767    1.000
    N2774    N        0.36235    0.94159    0.48535    1.000
    Si2775   Si       0.40091    0.96344    0.48195    1.000
    N2776    N        0.41249    0.92202    0.52580    1.000
    N2777    N        0.31068    0.84475    0.55156    1.000
    N2778    N        0.29335    0.78054    0.57299    1.000
    Si2779   Si       0.29753    0.82100    0.58655    1.000
    Si2780   Si       0.27694    0.77586    0.53057    1.000
    Si2781   Si       0.24923    0.88105    0.58382    1.000
    Si2782   Si       0.45845    0.86738    0.56792    1.000
    N2783    N        0.44097    0.78541    0.56081    1.000
    Si2784   Si       0.39869    0.79379    0.55204    1.000
    N2785    N        0.47398    0.85820    0.53106    1.000
    Si2786   Si       0.47513    0.77422    0.53116    1.000
    N2787    N        0.41659    0.87704    0.57945    1.000
    Si2788   Si       0.31774    0.88642    0.54513    1.000
    N2789    N        0.35696    0.90274    0.54845    1.000
    Si2790   Si       0.28054    0.94880    0.55665    1.000
    N2791    N        0.28134    0.90430    0.56191    1.000
    N2792    N        0.28004    0.00497    0.54856    1.000
    Si2793   Si       0.43544    0.95532    0.54231    1.000
    Si2794   Si       0.39519    0.91283    0.56611    1.000
    N2795    N        0.47700    0.95525    0.54950    1.000
    N2796    N        0.41661    0.94759    0.58276    1.000
    N2797    N        0.32343    0.82590    0.62205    1.000
    N2798    N        0.25904    0.84009    0.59660    1.000
    Si2799   Si       0.24074    0.82985    0.63456    1.000
    Si2800   Si       0.36427    0.81254    0.62548    1.000
    N2801    N        0.47310    0.77525    0.62755    1.000
    Si2802   Si       0.41465    0.84368    0.60605    1.000
    N2803    N        0.45747    0.83649    0.60407    1.000
    Si2804   Si       0.46974    0.79707    0.58957    1.000
    N2805    N        0.38695    0.81295    0.58934    1.000
    Si2806   Si       0.29634    0.00770    0.58964    1.000
    N2807    N        0.29788    0.96433    0.59616    1.000
    Si2808   Si       0.30773    0.94024    0.63125    1.000
    N2809    N        0.30865    0.89614    0.63377    1.000
    Si2810   Si       0.43615    0.96017    0.61882    1.000
    N2811    N        0.48628    0.89017    0.58972    1.000
    N2812    N        0.48373    0.95183    0.61434    1.000
    N2813    N        0.42499    0.00252    0.62612    1.000
    N2814    N        0.34266    0.86107    0.68377    1.000
    N2815    N        0.26990    0.85247    0.65874    1.000
    Si2816   Si       0.31417    0.85573    0.65060    1.000
    N2817    N        0.36143    0.77549    0.64784    1.000
    Si2818   Si       0.39089    0.77495    0.67888    1.000
    Si2819   Si       0.38695    0.84988    0.68412    1.000
    N2820    N        0.47109    0.81493    0.68659    1.000
    Si2821   Si       0.46701    0.85854    0.69463    1.000
    N2822    N        0.42481    0.86951    0.69873    1.000
    N2823    N        0.38797    0.81020    0.70282    1.000
    N2824    N        0.39127    0.84213    0.64297    1.000
    N2825    N        0.27343    0.94307    0.65918    1.000
    Si2826   Si       0.26874    0.97793    0.68414    1.000
    Si2827   Si       0.33998    0.99064    0.67874    1.000
    N2828    N        0.34093    0.95609    0.65198    1.000
    Si2829   Si       0.26613    0.90018    0.65498    1.000
    N2830    N        0.30023    0.00646    0.67547    1.000
    Si2831   Si       0.43048    0.95175    0.69910    1.000
    N2832    N        0.47930    0.88467    0.65962    1.000
    N2833    N        0.43821    0.94283    0.65731    1.000
    Si2834   Si       0.47856    0.92896    0.65407    1.000
    N2835    N        0.41830    0.99302    0.70018    1.000
    N2836    N        0.29481    0.83932    0.72138    1.000
    Si2837   Si       0.33069    0.86490    0.72887    1.000
    Si2838   Si       0.28751    0.80045    0.74084    1.000
    N2839    N        0.25538    0.77632    0.72268    1.000
    N2840    N        0.32371    0.77873    0.74913    1.000
    Si2841   Si       0.25718    0.85398    0.70072    1.000
    N2842    N        0.37556    0.86172    0.73758    1.000
    Si2843   Si       0.39403    0.82303    0.74313    1.000
    Si2844   Si       0.45052    0.78354    0.71407    1.000
    N2845    N        0.43489    0.80936    0.74746    1.000
    N2846    N        0.47835    0.76194    0.74064    1.000
    N2847    N        0.48884    0.87073    0.73059    1.000
    Si2848   Si       0.35442    0.93688    0.72875    1.000
    N2849    N        0.35152    0.97982    0.71844    1.000
    N2850    N        0.32048    0.90922    0.72703    1.000
    Si2851   Si       0.27712    0.91964    0.73010    1.000
    N2852    N        0.27320    0.96324    0.72365    1.000
    N2853    N        0.25252    0.89795    0.70108    1.000
    N2854    N        0.39612    0.92904    0.71351    1.000
    Si2855   Si       0.47126    0.90897    0.74952    1.000
    Si2856   Si       0.40572    0.89072    0.73292    1.000
    Si2857   Si       0.38790    0.00295    0.72977    1.000
    N2858    N        0.46655    0.94157    0.72219    1.000
    N2859    N        0.26982    0.81456    0.77722    1.000
    N2860    N        0.31862    0.86501    0.77976    1.000
    Si2861   Si       0.34724    0.78251    0.78716    1.000
    Si2862   Si       0.29846    0.83505    0.80279    1.000
    N2863    N        0.37857    0.80939    0.78012    1.000
    Si2864   Si       0.45341    0.80609    0.78650    1.000
    N2865    N        0.44943    0.76730    0.80505    1.000
    N2866    N        0.38216    0.87316    0.81342    1.000
    Si2867   Si       0.38936    0.83079    0.81732    1.000
    N2868    N        0.24188    0.97578    0.78733    1.000
    Si2869   Si       0.34859    0.89400    0.79418    1.000
    N2870    N        0.26309    0.91024    0.77056    1.000
    Si2871   Si       0.28401    0.89706    0.81048    1.000
    N2872    N        0.35883    0.98077    0.82097    1.000
    N2873    N        0.32196    0.91634    0.81884    1.000
    Si2874   Si       0.42120    0.89365    0.80782    1.000
    N2875    N        0.36523    0.92832    0.77005    1.000
    Si2876   Si       0.38639    0.96105    0.79310    1.000
    N2877    N        0.41386    0.93586    0.81718    1.000
    N2878    N        0.43402    0.89379    0.76618    1.000
    N2879    N        0.40439    0.99486    0.76946    1.000
    Si2880   Si       0.33594    0.80247    0.86219    1.000
    N2881    N        0.27619    0.85908    0.83251    1.000
    Si2882   Si       0.29029    0.86126    0.87561    1.000
    N2883    N        0.32284    0.80111    0.81917    1.000
    N2884    N        0.37697    0.81138    0.85325    1.000
    Si2885   Si       0.46426    0.84736    0.84550    1.000
    N2886    N        0.42723    0.76847    0.87452    1.000
    N2887    N        0.43471    0.83051    0.81662    1.000
    Si2888   Si       0.27377    0.93737    0.86665    1.000
    Si2889   Si       0.33506    0.95020    0.84067    1.000
    N2890    N        0.25341    0.92281    0.83243    1.000
    N2891    N        0.30034    0.96981    0.85377    1.000
    N2892    N        0.35583    0.93466    0.87445    1.000
    N2893    N        0.43810    0.00309    0.82937    1.000
    Si2894   Si       0.43716    0.96155    0.84359    1.000
    N2895    N        0.47907    0.94922    0.84152    1.000
    N2896    N        0.46013    0.88822    0.83164    1.000
    Si2897   Si       0.29562    0.77290    0.92265    1.000
    N2898    N        0.24961    0.85096    0.88871    1.000
    N2899    N        0.25287    0.77387    0.90198    1.000
    N2900    N        0.32346    0.83446    0.88791    1.000
    Si2901   Si       0.34893    0.84302    0.92226    1.000
    N2902    N        0.31840    0.76894    0.88242    1.000
    N2903    N        0.35369    0.88518    0.92078    1.000
    Si2904   Si       0.44751    0.85877    0.92101    1.000
    N2905    N        0.38775    0.81830    0.92043    1.000
    N2906    N        0.44194    0.83915    0.88299    1.000
    Si2907   Si       0.40966    0.80723    0.88172    1.000
    N2908    N        0.29799    0.00510    0.91189    1.000
    Si2909   Si       0.33096    0.91809    0.90663    1.000
    N2910    N        0.24866    0.96095    0.89461    1.000
    N2911    N        0.30471    0.94328    0.93226    1.000
    Si2912   Si       0.27002    0.97225    0.93042    1.000
    N2913    N        0.29682    0.90263    0.88352    1.000
    N2914    N        0.36397    0.99975    0.89549    1.000
    Si2915   Si       0.44315    0.93368    0.91685    1.000
    Si2916   Si       0.38271    0.96060    0.89699    1.000
    N2917    N        0.48504    0.94804    0.91818    1.000
    N2918    N        0.42337    0.95161    0.88241    1.000
    N2919    N        0.42411    0.89615    0.92795    1.000
    N2920    N        0.33143    0.83926    0.96478    1.000
    Si2921   Si       0.28639    0.83415    0.97117    1.000
    Si2922   Si       0.34831    0.80063    0.97835    1.000
    N2923    N        0.26870    0.87043    0.95524    1.000
    N2924    N        0.27496    0.79745    0.95320    1.000
    N2925    N        0.33468    0.77421    0.94825    1.000
    Si2926   Si       0.34231    0.87363    0.99242    1.000
    Si2927   Si       0.41476    0.80132    0.94991    1.000
    N2928    N        0.44979    0.82689    0.95086    1.000
    N2929    N        0.39204    0.80673    0.98670    1.000
    N2930    N        0.42612    0.76021    0.94271    1.000
    Si2931   Si       0.48804    0.81071    0.96450    1.000
    Si2932   Si       0.28055    0.91139    0.96765    1.000
    Si2933   Si       0.33312    0.94894    0.96710    1.000
    N2934    N        0.25089    0.94319    0.96050    1.000
    N2935    N        0.32273    0.90867    0.97949    1.000
    N2936    N        0.30330    0.97696    0.98397    1.000
    N2937    N        0.38322    0.88345    0.98273    1.000
    N2938    N        0.36984    0.94502    0.93655    1.000
    Si2939   Si       0.39103    0.97243    0.96701    1.000
    Si2940   Si       0.45306    0.98640    0.97251    1.000
    Si2941   Si       0.38612    0.90184    0.94294    1.000
    N2942    N        0.42999    0.95401    0.95421    1.000
    N2943    N        0.41658    0.00342    0.98669    1.000
    Si2944   Si       0.60476    0.09562    0.02403    1.000
    Si2945   Si       0.57596    0.02405    0.00411    1.000
    N2946    N        0.58489    0.02283    0.04769    1.000
    N2947    N        0.57725    0.11650    0.05112    1.000
    N2948    N        0.53182    0.02554    0.99561    1.000
    N2949    N        0.63193    0.07194    0.04781    1.000
    N2950    N        0.68871    0.02253    0.01263    1.000
    N2951    N        0.69602    0.08888    0.02513    1.000
    Si2952   Si       0.71529    0.05552    0.00168    1.000
    Si2953   Si       0.67728    0.12639    0.00827    1.000
    N2954    N        0.63351    0.13005    0.01266    1.000
    N2955    N        0.56557    0.22225    0.01255    1.000
    Si2956   Si       0.52823    0.20616    0.02245    1.000
    N2957    N        0.49261    0.22008    0.04249    1.000
    N2958    N        0.60672    0.18020    0.05401    1.000
    N2959    N        0.68958    0.15222    0.04204    1.000
    N2960    N        0.71690    0.22113    0.02815    1.000
    Si2961   Si       0.61685    0.17216    0.01257    1.000
    N2962    N        0.64945    0.20228    0.00688    1.000
    Si2963   Si       0.68259    0.19561    0.03595    1.000
    Si2964   Si       0.55719    0.09489    0.08176    1.000
    N2965    N        0.53121    0.06013    0.07145    1.000
    Si2966   Si       0.55038    0.02043    0.07279    1.000
    N2967    N        0.52126    0.11340    0.10227    1.000
    Si2968   Si       0.49591    0.08301    0.08044    1.000
    N2969    N        0.58573    0.08809    0.11306    1.000
    Si2970   Si       0.62456    0.02935    0.06339    1.000
    N2971    N        0.68707    0.10178    0.09303    1.000
    N2972    N        0.67726    0.03571    0.07655    1.000
    Si2973   Si       0.67227    0.07615    0.05880    1.000
    N2974    N        0.61845    0.02931    0.10666    1.000
    Si2975   Si       0.71797    0.07794    0.11384    1.000
    N2976    N        0.57133    0.15508    0.11061    1.000
    Si2977   Si       0.57345    0.15701    0.06709    1.000
    Si2978   Si       0.50320    0.19371    0.07715    1.000
    N2979    N        0.60629    0.25065    0.06034    1.000
    N2980    N        0.50298    0.21764    0.11361    1.000
    N2981    N        0.53658    0.17738    0.05593    1.000
    Si2982   Si       0.62331    0.21509    0.07656    1.000
    Si2983   Si       0.70237    0.14250    0.08200    1.000
    N2984    N        0.66739    0.21059    0.07167    1.000
    Si2985   Si       0.67436    0.20735    0.11356    1.000
    N2986    N        0.52281    0.04539    0.15729    1.000
    N2987    N        0.55492    0.11771    0.16466    1.000
    N2988    N        0.59422    0.05894    0.17158    1.000
    Si2989   Si       0.59307    0.12550    0.13739    1.000
    Si2990   Si       0.52305    0.00439    0.13938    1.000
    Si2991   Si       0.55406    0.07353    0.17260    1.000
    Si2992   Si       0.62011    0.06648    0.13516    1.000
    Si2993   Si       0.67160    0.02376    0.11802    1.000
    N2994    N        0.71552    0.10614    0.14780    1.000
    N2995    N        0.65677    0.04876    0.15186    1.000
    N2996    N        0.63370    0.10963    0.14171    1.000
    N2997    N        0.71471    0.03733    0.12742    1.000
    Si2998   Si       0.67378    0.12313    0.13738    1.000
    Si2999   Si       0.53313    0.14149    0.13304    1.000
    N3000    N        0.50632    0.16420    0.15651    1.000
    N3001    N        0.58805    0.23526    0.16761    1.000
    N3002    N        0.60719    0.15740    0.16735    1.000
    N3003    N        0.63120    0.21917    0.12086    1.000
    N3004    N        0.69281    0.24307    0.12843    1.000
    N3005    N        0.68642    0.16212    0.11948    1.000
    Si3006   Si       0.62474    0.25135    0.14784    1.000
    Si3007   Si       0.71398    0.15669    0.16518    1.000
    N3008    N        0.54866    0.07255    0.21796    1.000
    N3009    N        0.59171    0.12631    0.22061    1.000
    Si3010   Si       0.50725    0.09143    0.22026    1.000
    Si3011   Si       0.61168    0.02480    0.19098    1.000
    Si3012   Si       0.59558    0.08124    0.22954    1.000
    N3013    N        0.63784    0.08517    0.20853    1.000
    N3014    N        0.70745    0.06992    0.20736    1.000
    N3015    N        0.65238    0.01918    0.20711    1.000
    Si3016   Si       0.66907    0.05711    0.19273    1.000
    Si3017   Si       0.63073    0.12309    0.18584    1.000
    Si3018   Si       0.73706    0.09703    0.18547    1.000
    N3019    N        0.51929    0.13400    0.22403    1.000
    N3020    N        0.56177    0.18572    0.20455    1.000
    Si3021   Si       0.55662    0.14215    0.20039    1.000
    Si3022   Si       0.59959    0.19785    0.18505    1.000
    Si3023   Si       0.54330    0.22093    0.22040    1.000
    N3024    N        0.53052    0.24963    0.19101    1.000
    Si3025   Si       0.65313    0.24424    0.21952    1.000
    N3026    N        0.63737    0.20537    0.20881    1.000
    Si3027   Si       0.67264    0.17816    0.20904    1.000
    Si3028   Si       0.72373    0.22698    0.20715    1.000
    N3029    N        0.67117    0.14255    0.18010    1.000
    N3030    N        0.70287    0.19618    0.18544    1.000
    N3031    N        0.73467    0.13710    0.20180    1.000
    N3032    N        0.59628    0.09377    0.27325    1.000
    Si3033   Si       0.55192    0.03374    0.23854    1.000
    N3034    N        0.54270    0.03853    0.28096    1.000
    N3035    N        0.59470    0.03210    0.23230    1.000
    N3036    N        0.64250    0.04537    0.28149    1.000
    Si3037   Si       0.72364    0.06759    0.24707    1.000
    N3038    N        0.71068    0.03396    0.27262    1.000
    N3039    N        0.71360    0.10546    0.26477    1.000
    Si3040   Si       0.62669    0.01375    0.25714    1.000
    Si3041   Si       0.59490    0.13756    0.26521    1.000
    N3042    N        0.51232    0.20446    0.24864    1.000
    Si3043   Si       0.51987    0.16114    0.25978    1.000
    N3044    N        0.55929    0.15954    0.27871    1.000
    N3045    N        0.56790    0.23954    0.24866    1.000
    N3046    N        0.69313    0.23638    0.23626    1.000
    Si3047   Si       0.70219    0.24120    0.27968    1.000
    Si3048   Si       0.66939    0.16796    0.28624    1.000
    N3049    N        0.62954    0.15965    0.27302    1.000
    Si3050   Si       0.72647    0.14198    0.24464    1.000
    N3051    N        0.69015    0.16666    0.24709    1.000
    N3052    N        0.74130    0.22544    0.29058    1.000
    N3053    N        0.59176    0.04518    0.33073    1.000
    Si3054   Si       0.50808    0.05248    0.30215    1.000
    N3055    N        0.50462    0.09544    0.30008    1.000
    Si3056   Si       0.57046    0.01528    0.30695    1.000
    Si3057   Si       0.49455    0.12909    0.32491    1.000
    N3058    N        0.50720    0.04473    0.34596    1.000
    Si3059   Si       0.61491    0.07140    0.30510    1.000
    Si3060   Si       0.68045    0.03925    0.30232    1.000
    N3061    N        0.69105    0.07397    0.32507    1.000
    Si3062   Si       0.71046    0.10933    0.30839    1.000
    N3063    N        0.62915    0.09945    0.33710    1.000
    N3064    N        0.52849    0.15204    0.34102    1.000
    Si3065   Si       0.55904    0.17498    0.31889    1.000
    N3066    N        0.55273    0.21891    0.32969    1.000
    Si3067   Si       0.58690    0.24431    0.33895    1.000
    Si3068   Si       0.51944    0.23958    0.34202    1.000
    N3069    N        0.59421    0.15937    0.33817    1.000
    N3070    N        0.68566    0.14335    0.31828    1.000
    N3071    N        0.67547    0.21019    0.30014    1.000
    N3072    N        0.61965    0.21643    0.33740    1.000
    Si3073   Si       0.66230    0.22221    0.33828    1.000
    N3074    N        0.57020    0.10421    0.37469    1.000
    Si3075   Si       0.60438    0.12413    0.36080    1.000
    N3076    N        0.49217    0.10901    0.36702    1.000
    Si3077   Si       0.53198    0.12676    0.37648    1.000
    N3078    N        0.57962    0.03769    0.40276    1.000
    Si3079   Si       0.60670    0.03196    0.37008    1.000
    Si3080   Si       0.66461    0.08462    0.35731    1.000
    N3081    N        0.64515    0.05337    0.37875    1.000
    N3082    N        0.68694    0.11584    0.38061    1.000
    N3083    N        0.51444    0.22920    0.38687    1.000
    N3084    N        0.58521    0.20768    0.39672    1.000
    Si3085   Si       0.54294    0.19987    0.40626    1.000
    Si3086   Si       0.61622    0.18520    0.37111    1.000
    N3087    N        0.53495    0.15738    0.40748    1.000
    N3088    N        0.71633    0.23021    0.40151    1.000
    N3089    N        0.62114    0.14897    0.39488    1.000
    N3090    N        0.66587    0.19094    0.37065    1.000
    Si3091   Si       0.69074    0.15427    0.36017    1.000
    N3092    N        0.73190    0.16912    0.36590    1.000
    N3093    N        0.54805    0.09849    0.43855    1.000
    Si3094   Si       0.58876    0.02148    0.44263    1.000
    N3095    N        0.51746    0.03693    0.45563    1.000
    Si3096   Si       0.57616    0.08065    0.41109    1.000
    Si3097   Si       0.49085    0.02328    0.42510    1.000
    Si3098   Si       0.51803    0.08045    0.46465    1.000
    N3099    N        0.61625    0.09062    0.42731    1.000
    N3100    N        0.73450    0.11500    0.43495    1.000
    N3101    N        0.68523    0.06770    0.43580    1.000
    Si3102   Si       0.69339    0.10930    0.42311    1.000
    Si3103   Si       0.64464    0.05690    0.42215    1.000
    N3104    N        0.63038    0.02061    0.43953    1.000
    N3105    N        0.49804    0.25191    0.45486    1.000
    N3106    N        0.54540    0.20557    0.44990    1.000
    N3107    N        0.59110    0.15616    0.45342    1.000
    Si3108   Si       0.55019    0.14142    0.44549    1.000
    N3109    N        0.60639    0.23108    0.46380    1.000
    Si3110   Si       0.59872    0.24638    0.41515    1.000
    Si3111   Si       0.48690    0.25319    0.41187    1.000
    Si3112   Si       0.62370    0.13328    0.43528    1.000
    Si3113   Si       0.65111    0.24331    0.45886    1.000
    N3114    N        0.66592    0.13555    0.44614    1.000
    N3115    N        0.67207    0.20421    0.45221    1.000
    N3116    N        0.64391    0.24475    0.41330    1.000
    Si3117   Si       0.67577    0.21409    0.40783    1.000
    Si3118   Si       0.57785    0.07882    0.50717    1.000
    N3119    N        0.53499    0.08426    0.50445    1.000
    N3120    N        0.58030    0.04293    0.48066    1.000
    Si3121   Si       0.54375    0.01791    0.48386    1.000
    N3122    N        0.60892    0.10555    0.50183    1.000
    N3123    N        0.71384    0.09046    0.49374    1.000
    N3124    N        0.67550    0.02515    0.49230    1.000
    Si3125   Si       0.70501    0.05152    0.47501    1.000
    Si3126   Si       0.73536    0.12484    0.47654    1.000
    Si3127   Si       0.63515    0.12904    0.52659    1.000
    N3128    N        0.52062    0.14653    0.47874    1.000
    N3129    N        0.50727    0.20395    0.51015    1.000
    N3130    N        0.57059    0.18506    0.51124    1.000
    Si3131   Si       0.53066    0.16611    0.51570    1.000
    Si3132   Si       0.58263    0.19603    0.47134    1.000
    Si3133   Si       0.50841    0.21381    0.46924    1.000
    N3134    N        0.65691    0.16425    0.51210    1.000
    Si3135   Si       0.73377    0.19888    0.50909    1.000
    N3136    N        0.69782    0.22260    0.52224    1.000
    Si3137   Si       0.67743    0.16704    0.47402    1.000
    N3138    N        0.71785    0.16508    0.48753    1.000
    N3139    N        0.57347    0.07761    0.55068    1.000
    Si3140   Si       0.52387    0.09707    0.54609    1.000
    N3141    N        0.51736    0.07203    0.58135    1.000
    Si3142   Si       0.59739    0.06310    0.58294    1.000
    N3143    N        0.72846    0.12306    0.55432    1.000
    N3144    N        0.70048    0.05010    0.54919    1.000
    N3145    N        0.66215    0.10101    0.54307    1.000
    Si3146   Si       0.70281    0.09226    0.53528    1.000
    Si3147   Si       0.66521    0.02847    0.53579    1.000
    N3148    N        0.63616    0.04085    0.56779    1.000
    Si3149   Si       0.72803    0.02360    0.57389    1.000
    Si3150   Si       0.65787    0.07851    0.58179    1.000
    Si3151   Si       0.49681    0.23725    0.53809    1.000
    N3152    N        0.52849    0.14063    0.55157    1.000
    Si3153   Si       0.59733    0.18660    0.54579    1.000
    N3154    N        0.53216    0.24688    0.56035    1.000
    N3155    N        0.60963    0.14587    0.55747    1.000
    Si3156   Si       0.70134    0.25857    0.54453    1.000
    N3157    N        0.68544    0.18955    0.57821    1.000
    N3158    N        0.73474    0.25293    0.57596    1.000
    Si3159   Si       0.66895    0.19536    0.53817    1.000
    N3160    N        0.63188    0.21429    0.54588    1.000
    Si3161   Si       0.62990    0.24525    0.57410    1.000
    N3162    N        0.57519    0.03382    0.60703    1.000
    Si3163   Si       0.53185    0.03777    0.60074    1.000
    N3164    N        0.51479    0.02459    0.64160    1.000
    N3165    N        0.49549    0.13291    0.61978    1.000
    Si3166   Si       0.60349    0.13425    0.59803    1.000
    N3167    N        0.62119    0.09371    0.60055    1.000
    N3168    N        0.69196    0.08718    0.60515    1.000
    N3169    N        0.71736    0.02493    0.61837    1.000
    Si3170   Si       0.72371    0.11413    0.59701    1.000
    Si3171   Si       0.69978    0.06001    0.63958    1.000
    N3172    N        0.56095    0.13802    0.61446    1.000
    N3173    N        0.51569    0.19651    0.60031    1.000
    Si3174   Si       0.52462    0.15313    0.59264    1.000
    Si3175   Si       0.54906    0.22454    0.59334    1.000
    N3176    N        0.55669    0.25062    0.63184    1.000
    Si3177   Si       0.60812    0.19832    0.62135    1.000
    N3178    N        0.58363    0.19942    0.58512    1.000
    N3179    N        0.62913    0.16150    0.62537    1.000
    N3180    N        0.71270    0.14559    0.62704    1.000
    N3181    N        0.62916    0.23803    0.61813    1.000
    Si3182   Si       0.70918    0.18675    0.61367    1.000
    Si3183   Si       0.53588    0.04583    0.67397    1.000
    N3184    N        0.54783    0.08842    0.66405    1.000
    Si3185   Si       0.58033    0.09907    0.69120    1.000
    Si3186   Si       0.51382    0.11339    0.65364    1.000
    N3187    N        0.57238    0.02065    0.67355    1.000
    N3188    N        0.61238    0.07022    0.69494    1.000
    Si3189   Si       0.65453    0.07659    0.68845    1.000
    N3190    N        0.66895    0.04348    0.66522    1.000
    N3191    N        0.66474    0.11184    0.66560    1.000
    N3192    N        0.72737    0.08585    0.65959    1.000
    Si3193   Si       0.70580    0.12392    0.66452    1.000
    N3194    N        0.59694    0.13674    0.67579    1.000
    N3195    N        0.53102    0.14794    0.67718    1.000
    Si3196   Si       0.55764    0.22870    0.67164    1.000
    Si3197   Si       0.56554    0.15557    0.65409    1.000
    N3198    N        0.57767    0.19540    0.65125    1.000
    N3199    N        0.52373    0.21533    0.69290    1.000
    N3200    N        0.58803    0.24487    0.69801    1.000
    Si3201   Si       0.49117    0.24298    0.69761    1.000
    Si3202   Si       0.69507    0.19111    0.68682    1.000
    N3203    N        0.65270    0.17840    0.69353    1.000
    Si3204   Si       0.63870    0.14663    0.66606    1.000
    N3205    N        0.71525    0.15320    0.69354    1.000
    N3206    N        0.68958    0.20954    0.64639    1.000
    Si3207   Si       0.66420    0.24496    0.64613    1.000
    N3208    N        0.65572    0.25746    0.68800    1.000
    N3209    N        0.56262    0.10894    0.72970    1.000
    Si3210   Si       0.53536    0.07845    0.74350    1.000
    N3211    N        0.51493    0.05306    0.71163    1.000
    N3212    N        0.49641    0.09746    0.75064    1.000
    N3213    N        0.60823    0.02605    0.74810    1.000
    Si3214   Si       0.60218    0.02817    0.70470    1.000
    Si3215   Si       0.69361    0.04519    0.74460    1.000
    N3216    N        0.66710    0.07741    0.73145    1.000
    N3217    N        0.72834    0.04878    0.72218    1.000
    Si3218   Si       0.64427    0.10203    0.75926    1.000
    N3219    N        0.49330    0.16302    0.73812    1.000
    Si3220   Si       0.58383    0.14511    0.74719    1.000
    N3221    N        0.56530    0.18167    0.73202    1.000
    Si3222   Si       0.58497    0.22037    0.73509    1.000
    Si3223   Si       0.52596    0.17675    0.71099    1.000
    N3224    N        0.62030    0.20522    0.75340    1.000
    Si3225   Si       0.72156    0.19936    0.75272    1.000
    N3226    N        0.62565    0.13741    0.74100    1.000
    Si3227   Si       0.64513    0.17561    0.73564    1.000
    N3228    N        0.71182    0.22006    0.71494    1.000
    N3229    N        0.68383    0.17823    0.75451    1.000
    Si3230   Si       0.58989    0.04468    0.78185    1.000
    Si3231   Si       0.51271    0.02178    0.77543    1.000
    Si3232   Si       0.59542    0.11644    0.81157    1.000
    N3233    N        0.54817    0.04736    0.77011    1.000
    N3234    N        0.61168    0.08499    0.78289    1.000
    N3235    N        0.58932    0.02033    0.81759    1.000
    N3236    N        0.67145    0.12206    0.79056    1.000
    N3237    N        0.70398    0.04529    0.78793    1.000
    Si3238   Si       0.72742    0.06926    0.81416    1.000
    Si3239   Si       0.55771    0.23977    0.80343    1.000
    N3240    N        0.58808    0.15378    0.78991    1.000
    N3241    N        0.52553    0.21268    0.80526    1.000
    N3242    N        0.50238    0.14271    0.81392    1.000
    Si3243   Si       0.61235    0.19390    0.79308    1.000
    N3244    N        0.56839    0.25234    0.76313    1.000
    N3245    N        0.65179    0.18717    0.81163    1.000
    N3246    N        0.72739    0.16567    0.80089    1.000
    N3247    N        0.72594    0.22895    0.78545    1.000
    Si3248   Si       0.68514    0.16334    0.79487    1.000
    Si3249   Si       0.55629    0.07981    0.86613    1.000
    N3250    N        0.56359    0.09472    0.82778    1.000
    N3251    N        0.55315    0.03640    0.87146    1.000
    Si3252   Si       0.55574    0.00956    0.83928    1.000
    N3253    N        0.63828    0.05636    0.85056    1.000
    N3254    N        0.70145    0.08810    0.84340    1.000
    N3255    N        0.62359    0.12027    0.84220    1.000
    Si3256   Si       0.66674    0.11241    0.83186    1.000
    N3257    N        0.69801    0.01334    0.84818    1.000
    Si3258   Si       0.62739    0.01573    0.83602    1.000
    Si3259   Si       0.62512    0.08940    0.87385    1.000
    Si3260   Si       0.72589    0.12968    0.83224    1.000
    Si3261   Si       0.74029    0.01597    0.86570    1.000
    Si3262   Si       0.50520    0.13471    0.85728    1.000
    N3263    N        0.52223    0.17449    0.86670    1.000
    N3264    N        0.59132    0.22038    0.82131    1.000
    Si3265   Si       0.61258    0.23932    0.85551    1.000
    Si3266   Si       0.49568    0.18730    0.82173    1.000
    Si3267   Si       0.66863    0.18717    0.85254    1.000
    N3268    N        0.68826    0.14859    0.84590    1.000
    N3269    N        0.70428    0.21070    0.85123    1.000
    N3270    N        0.63501    0.20649    0.87368    1.000
    Si3271   Si       0.73479    0.20586    0.82097    1.000
    Si3272   Si       0.55505    0.03116    0.91459    1.000
    N3273    N        0.58751    0.08623    0.89448    1.000
    Si3274   Si       0.53263    0.10292    0.92476    1.000
    N3275    N        0.52410    0.10592    0.88377    1.000
    N3276    N        0.72958    0.08879    0.90233    1.000
    N3277    N        0.67516    0.04129    0.90535    1.000
    N3278    N        0.66170    0.10571    0.89383    1.000
    Si3279   Si       0.69229    0.07727    0.88283    1.000
    Si3280   Si       0.65345    0.12142    0.93404    1.000
    N3281    N        0.55849    0.18300    0.92626    1.000
    N3282    N        0.52048    0.24099    0.89202    1.000
    Si3283   Si       0.52632    0.19965    0.90093    1.000
    Si3284   Si       0.71255    0.22040    0.89301    1.000
    N3285    N        0.68569    0.19061    0.91425    1.000
    N3286    N        0.62626    0.15357    0.92507    1.000
    Si3287   Si       0.64273    0.19373    0.91494    1.000
    Si3288   Si       0.50572    0.04432    0.96652    1.000
    N3289    N        0.57011    0.11391    0.94753    1.000
    N3290    N        0.50392    0.12333    0.94847    1.000
    Si3291   Si       0.59434    0.07732    0.94992    1.000
    N3292    N        0.59042    0.03404    0.93786    1.000
    N3293    N        0.58898    0.06719    0.99584    1.000
    N3294    N        0.52675    0.06198    0.93393    1.000
    N3295    N        0.65313    0.01162    0.95871    1.000
    N3296    N        0.71019    0.06090    0.95993    1.000
    N3297    N        0.63788    0.08272    0.95266    1.000
    Si3298   Si       0.66790    0.05129    0.94731    1.000
    N3299    N        0.52121    0.19748    0.97927    1.000
    Si3300   Si       0.56251    0.20684    0.96871    1.000
    N3301    N        0.58955    0.17431    0.98096    1.000
    Si3302   Si       0.50099    0.16371    0.96261    1.000
    N3303    N        0.56796    0.24954    0.95110    1.000
    Si3304   Si       0.58634    0.15394    0.94225    1.000
    Si3305   Si       0.64543    0.23566    0.98145    1.000
    Si3306   Si       0.71771    0.23377    0.98683    1.000
    N3307    N        0.62743    0.22237    0.94273    1.000
    Si3308   Si       0.70640    0.16526    0.94354    1.000
    N3309    N        0.68242    0.25214    0.96871    1.000
    N3310    N        0.68285    0.13734    0.96544    1.000
    N3311    N        0.72630    0.19837    0.96416    1.000
    Si3312   Si       0.56649    0.32209    0.03327    1.000
    N3313    N        0.53744    0.34905    0.02024    1.000
    N3314    N        0.55730    0.28739    0.00868    1.000
    N3315    N        0.60837    0.32870    0.02152    1.000
    Si3316   Si       0.58776    0.25761    0.02181    1.000
    N3317    N        0.70076    0.30907    0.01907    1.000
    Si3318   Si       0.62707    0.36239    0.03989    1.000
    N3319    N        0.66873    0.36160    0.05200    1.000
    Si3320   Si       0.52460    0.38844    0.01733    1.000
    N3321    N        0.54919    0.41753    0.03423    1.000
    N3322    N        0.53759    0.47657    0.02133    1.000
    Si3323   Si       0.59262    0.41470    0.03842    1.000
    N3324    N        0.61808    0.39389    0.00820    1.000
    Si3325   Si       0.68237    0.50693    0.99795    1.000
    N3326    N        0.61666    0.44633    0.05107    1.000
    Si3327   Si       0.66153    0.45150    0.05006    1.000
    N3328    N        0.67622    0.49334    0.03982    1.000
    Si3329   Si       0.69427    0.38690    0.02915    1.000
    N3330    N        0.68273    0.42721    0.01873    1.000
    N3331    N        0.50961    0.33241    0.09638    1.000
    N3332    N        0.57584    0.30878    0.07290    1.000
    Si3333   Si       0.59724    0.37795    0.11038    1.000
    Si3334   Si       0.55028    0.31790    0.10554    1.000
    N3335    N        0.59894    0.38146    0.06631    1.000
    Si3336   Si       0.49977    0.26285    0.11265    1.000
    Si3337   Si       0.50269    0.37186    0.11404    1.000
    Si3338   Si       0.61208    0.28904    0.08401    1.000
    N3339    N        0.71848    0.32576    0.08719    1.000
    N3340    N        0.65120    0.30200    0.07184    1.000
    Si3341   Si       0.68699    0.32187    0.05784    1.000
    Si3342   Si       0.57608    0.49883    0.09768    1.000
    N3343    N        0.55484    0.46313    0.08977    1.000
    N3344    N        0.53030    0.39943    0.10180    1.000
    Si3345   Si       0.53105    0.45075    0.05598    1.000
    N3346    N        0.61467    0.48328    0.10921    1.000
    N3347    N        0.71640    0.39571    0.06675    1.000
    N3348    N        0.73601    0.49332    0.07826    1.000
    Si3349   Si       0.67565    0.38857    0.08906    1.000
    N3350    N        0.66078    0.43144    0.08905    1.000
    Si3351   Si       0.61952    0.44224    0.09617    1.000
    N3352    N        0.53875    0.27890    0.12527    1.000
    N3353    N        0.57572    0.34654    0.12666    1.000
    Si3354   Si       0.59998    0.32306    0.15519    1.000
    Si3355   Si       0.55925    0.26596    0.16266    1.000
    N3356    N        0.49967    0.37478    0.15732    1.000
    N3357    N        0.61028    0.28887    0.12847    1.000
    Si3358   Si       0.71612    0.27317    0.14804    1.000
    N3359    N        0.69820    0.31363    0.15480    1.000
    Si3360   Si       0.71938    0.34228    0.12789    1.000
    Si3361   Si       0.66055    0.37139    0.15315    1.000
    N3362    N        0.69827    0.38010    0.13021    1.000
    N3363    N        0.63911    0.33669    0.17219    1.000
    N3364    N        0.64008    0.36947    0.11439    1.000
    Si3365   Si       0.52108    0.49330    0.14768    1.000
    N3366    N        0.54037    0.45413    0.15694    1.000
    Si3367   Si       0.55193    0.43261    0.12105    1.000
    N3368    N        0.59288    0.41925    0.12111    1.000
    Si3369   Si       0.71016    0.41780    0.15289    1.000
    N3370    N        0.72937    0.43684    0.11559    1.000
    N3371    N        0.70388    0.46154    0.16510    1.000
    Si3372   Si       0.71848    0.47747    0.11983    1.000
    N3373    N        0.68213    0.50384    0.11107    1.000
    Si3374   Si       0.55824    0.32654    0.21408    1.000
    N3375    N        0.58055    0.36034    0.19691    1.000
    N3376    N        0.51755    0.33970    0.22382    1.000
    Si3377   Si       0.50326    0.37471    0.20065    1.000
    N3378    N        0.57243    0.30168    0.18231    1.000
    Si3379   Si       0.72696    0.29827    0.21659    1.000
    N3380    N        0.68543    0.30724    0.22434    1.000
    Si3381   Si       0.66694    0.30515    0.18389    1.000
    N3382    N        0.72932    0.26513    0.18863    1.000
    N3383    N        0.65079    0.26562    0.18111    1.000
    Si3384   Si       0.48907    0.48885    0.22105    1.000
    Si3385   Si       0.54475    0.44575    0.20004    1.000
    N3386    N        0.53469    0.40421    0.20870    1.000
    N3387    N        0.58747    0.44023    0.21351    1.000
    Si3388   Si       0.57628    0.39681    0.21944    1.000
    N3389    N        0.52960    0.47297    0.22930    1.000
    N3390    N        0.48957    0.49560    0.17872    1.000
    Si3391   Si       0.66319    0.42985    0.21299    1.000
    N3392    N        0.66696    0.40693    0.17723    1.000
    Si3393   Si       0.67607    0.49288    0.18268    1.000
    N3394    N        0.64820    0.47155    0.20594    1.000
    Si3395   Si       0.73635    0.48613    0.18219    1.000
    N3396    N        0.57649    0.31064    0.25133    1.000
    Si3397   Si       0.59794    0.34102    0.27432    1.000
    Si3398   Si       0.58977    0.27120    0.26370    1.000
    Si3399   Si       0.66244    0.29855    0.26071    1.000
    N3400    N        0.64071    0.33369    0.27201    1.000
    N3401    N        0.63377    0.26927    0.25119    1.000
    N3402    N        0.70035    0.37416    0.27235    1.000
    N3403    N        0.68977    0.28139    0.28933    1.000
    Si3404   Si       0.73762    0.36307    0.25246    1.000
    N3405    N        0.59249    0.38156    0.25778    1.000
    N3406    N        0.59532    0.48907    0.26408    1.000
    Si3407   Si       0.55268    0.49219    0.25907    1.000
    N3408    N        0.69968    0.42995    0.23382    1.000
    Si3409   Si       0.61454    0.41187    0.28156    1.000
    N3410    N        0.64095    0.42994    0.25269    1.000
    Si3411   Si       0.68202    0.41918    0.27306    1.000
    Si3412   Si       0.61805    0.46464    0.23695    1.000
    N3413    N        0.65611    0.50512    0.27830    1.000
    N3414    N        0.58303    0.34343    0.31488    1.000
    N3415    N        0.58692    0.27453    0.30779    1.000
    Si3416   Si       0.57033    0.30383    0.33556    1.000
    Si3417   Si       0.58959    0.38012    0.33882    1.000
    N3418    N        0.53117    0.28109    0.34318    1.000
    N3419    N        0.66936    0.33453    0.33235    1.000
    Si3420   Si       0.69312    0.29696    0.33115    1.000
    Si3421   Si       0.66660    0.35859    0.29503    1.000
    N3422    N        0.73297    0.31176    0.34244    1.000
    N3423    N        0.67268    0.26279    0.34917    1.000
    N3424    N        0.54149    0.47494    0.29860    1.000
    Si3425   Si       0.54592    0.43598    0.31760    1.000
    N3426    N        0.51020    0.41161    0.31635    1.000
    N3427    N        0.58431    0.41608    0.31212    1.000
    Si3428   Si       0.53587    0.49577    0.33570    1.000
    Si3429   Si       0.49492    0.38834    0.35086    1.000
    Si3430   Si       0.69080    0.49436    0.30033    1.000
    N3431    N        0.69765    0.44988    0.29859    1.000
    Si3432   Si       0.70777    0.45423    0.34187    1.000
    Si3433   Si       0.65082    0.41389    0.34755    1.000
    N3434    N        0.65111    0.40029    0.30586    1.000
    N3435    N        0.68811    0.49431    0.34432    1.000
    Si3436   Si       0.54183    0.35244    0.38050    1.000
    N3437    N        0.57209    0.32316    0.37440    1.000
    Si3438   Si       0.49737    0.30397    0.36140    1.000
    N3439    N        0.59943    0.26614    0.37307    1.000
    N3440    N        0.50919    0.34662    0.35464    1.000
    N3441    N        0.49267    0.29542    0.40354    1.000
    N3442    N        0.64267    0.31356    0.39606    1.000
    Si3443   Si       0.64262    0.27482    0.37945    1.000
    Si3444   Si       0.65459    0.34807    0.37111    1.000
    N3445    N        0.68287    0.36297    0.40009    1.000
    N3446    N        0.58507    0.43389    0.40355    1.000
    N3447    N        0.56341    0.38910    0.37150    1.000
    Si3448   Si       0.54441    0.42703    0.39074    1.000
    Si3449   Si       0.50467    0.49111    0.39947    1.000
    N3450    N        0.50456    0.40799    0.38680    1.000
    Si3451   Si       0.59149    0.47002    0.37336    1.000
    N3452    N        0.54855    0.45485    0.35680    1.000
    N3453    N        0.49567    0.49155    0.35634    1.000
    Si3454   Si       0.60560    0.39467    0.40171    1.000
    Si3455   Si       0.70998    0.39608    0.39508    1.000
    N3456    N        0.69143    0.41984    0.36038    1.000
    N3457    N        0.62595    0.38218    0.36479    1.000
    N3458    N        0.62763    0.44946    0.35742    1.000
    Si3459   Si       0.56056    0.36701    0.44974    1.000
    N3460    N        0.59055    0.28649    0.43391    1.000
    N3461    N        0.59668    0.35917    0.42482    1.000
    N3462    N        0.52971    0.34943    0.42129    1.000
    Si3463   Si       0.49372    0.32754    0.43078    1.000
    Si3464   Si       0.60078    0.31923    0.40890    1.000
    Si3465   Si       0.68201    0.32859    0.42511    1.000
    Si3466   Si       0.72180    0.26765    0.42304    1.000
    N3467    N        0.69082    0.26788    0.45317    1.000
    N3468    N        0.71288    0.30587    0.40630    1.000
    Si3469   Si       0.54100    0.44678    0.45915    1.000
    N3470    N        0.53764    0.40455    0.44641    1.000
    N3471    N        0.53501    0.47140    0.42324    1.000
    Si3472   Si       0.49709    0.39450    0.42725    1.000
    N3473    N        0.60076    0.49159    0.41136    1.000
    N3474    N        0.63606    0.41409    0.42731    1.000
    Si3475   Si       0.61445    0.45424    0.43406    1.000
    Si3476   Si       0.66781    0.42388    0.45389    1.000
    N3477    N        0.70462    0.42057    0.43038    1.000
    Si3478   Si       0.73296    0.42345    0.46287    1.000
    N3479    N        0.65525    0.46539    0.45379    1.000
    Si3480   Si       0.53899    0.31778    0.50126    1.000
    N3481    N        0.56198    0.35163    0.49067    1.000
    N3482    N        0.56856    0.28185    0.50573    1.000
    Si3483   Si       0.59790    0.27446    0.47640    1.000
    N3484    N        0.50611    0.31459    0.47176    1.000
    N3485    N        0.63981    0.28098    0.48882    1.000
    Si3486   Si       0.68590    0.36932    0.49315    1.000
    Si3487   Si       0.68025    0.29645    0.48438    1.000
    N3488    N        0.70666    0.29115    0.51788    1.000
    N3489    N        0.67779    0.33784    0.46686    1.000
    Si3490   Si       0.59381    0.47683    0.50902    1.000
    N3491    N        0.51129    0.44670    0.49139    1.000
    N3492    N        0.58623    0.45533    0.47212    1.000
    N3493    N        0.49416    0.50192    0.52511    1.000
    N3494    N        0.66002    0.40268    0.49274    1.000
    N3495    N        0.72574    0.38725    0.48437    1.000
    N3496    N        0.71515    0.45575    0.48829    1.000
    Si3497   Si       0.68640    0.48852    0.47631    1.000
    Si3498   Si       0.55906    0.27928    0.55049    1.000
    N3499    N        0.53430    0.31444    0.54553    1.000
    Si3500   Si       0.50655    0.32703    0.57447    1.000
    N3501    N        0.59368    0.27085    0.57691    1.000
    N3502    N        0.49665    0.36609    0.55659    1.000
    Si3503   Si       0.71697    0.32662    0.54345    1.000
    N3504    N        0.68364    0.35645    0.53745    1.000
    N3505    N        0.66552    0.26979    0.56850    1.000
    Si3506   Si       0.66135    0.36487    0.57367    1.000
    Si3507   Si       0.55862    0.44796    0.57242    1.000
    N3508    N        0.51283    0.44228    0.56999    1.000
    N3509    N        0.56325    0.40414    0.57061    1.000
    N3510    N        0.55902    0.46945    0.53445    1.000
    Si3511   Si       0.51919    0.39728    0.57695    1.000
    Si3512   Si       0.51565    0.46484    0.53034    1.000
    N3513    N        0.62668    0.45698    0.52942    1.000
    Si3514   Si       0.64769    0.41885    0.53190    1.000
    N3515    N        0.62892    0.39192    0.56568    1.000
    Si3516   Si       0.63162    0.47094    0.57057    1.000
    Si3517   Si       0.72069    0.44936    0.52995    1.000
    N3518    N        0.68854    0.42837    0.54841    1.000
    N3519    N        0.72387    0.48824    0.54835    1.000
    N3520    N        0.52427    0.31238    0.61263    1.000
    N3521    N        0.58788    0.34948    0.61660    1.000
    Si3522   Si       0.54633    0.34639    0.62797    1.000
    Si3523   Si       0.52042    0.27539    0.63378    1.000
    Si3524   Si       0.59550    0.26922    0.62074    1.000
    N3525    N        0.52580    0.38018    0.61635    1.000
    N3526    N        0.64883    0.33136    0.60066    1.000
    Si3527   Si       0.72019    0.35787    0.61754    1.000
    Si3528   Si       0.67831    0.29970    0.59698    1.000
    N3529    N        0.68756    0.27948    0.63274    1.000
    Si3530   Si       0.62342    0.33222    0.63570    1.000
    N3531    N        0.71692    0.31840    0.58803    1.000
    Si3532   Si       0.59470    0.38745    0.59490    1.000
    N3533    N        0.59344    0.46151    0.59236    1.000
    N3534    N        0.60261    0.40753    0.63478    1.000
    Si3535   Si       0.49740    0.40180    0.64002    1.000
    Si3536   Si       0.61451    0.44780    0.62616    1.000
    N3537    N        0.72450    0.45063    0.60619    1.000
    N3538    N        0.69038    0.38446    0.60109    1.000
    N3539    N        0.65545    0.45320    0.60587    1.000
    Si3540   Si       0.69171    0.42830    0.59362    1.000
    Si3541   Si       0.66611    0.47823    0.64093    1.000
    N3542    N        0.53232    0.34428    0.66886    1.000
    N3543    N        0.50645    0.27969    0.67557    1.000
    N3544    N        0.61001    0.29358    0.65282    1.000
    Si3545   Si       0.49308    0.32603    0.67116    1.000
    Si3546   Si       0.61816    0.27577    0.69204    1.000
    Si3547   Si       0.71730    0.30003    0.65703    1.000
    N3548    N        0.63718    0.35779    0.66832    1.000
    Si3549   Si       0.67596    0.35516    0.68719    1.000
    N3550    N        0.70292    0.34082    0.65483    1.000
    N3551    N        0.72241    0.28405    0.69743    1.000
    Si3552   Si       0.60788    0.38849    0.67367    1.000
    N3553    N        0.51338    0.44141    0.64427    1.000
    N3554    N        0.61684    0.42209    0.69933    1.000
    N3555    N        0.69311    0.45546    0.66857    1.000
    Si3556   Si       0.63229    0.46139    0.69899    1.000
    N3557    N        0.62445    0.47700    0.65766    1.000
    Si3558   Si       0.73148    0.46391    0.64777    1.000
    N3559    N        0.54879    0.31513    0.72704    1.000
    Si3560   Si       0.50884    0.30272    0.73856    1.000
    Si3561   Si       0.57764    0.29380    0.75086    1.000
    Si3562   Si       0.54193    0.35516    0.70973    1.000
    N3563    N        0.58051    0.37470    0.70453    1.000
    N3564    N        0.61829    0.29674    0.73221    1.000
    N3565    N        0.67457    0.33900    0.73007    1.000
    Si3566   Si       0.65488    0.30641    0.75105    1.000
    N3567    N        0.68215    0.27309    0.75461    1.000
    Si3568   Si       0.69346    0.37329    0.74590    1.000
    Si3569   Si       0.69152    0.25839    0.71404    1.000
    N3570    N        0.51883    0.39045    0.72529    1.000
    Si3571   Si       0.49579    0.47152    0.73826    1.000
    N3572    N        0.59977    0.49036    0.71337    1.000
    N3573    N        0.57440    0.43451    0.75273    1.000
    Si3574   Si       0.59984    0.40177    0.73372    1.000
    Si3575   Si       0.57436    0.47789    0.74495    1.000
    N3576    N        0.53365    0.48785    0.72959    1.000
    Si3577   Si       0.53615    0.41536    0.75677    1.000
    N3578    N        0.69190    0.39201    0.70278    1.000
    Si3579   Si       0.69588    0.43503    0.70780    1.000
    Si3580   Si       0.66892    0.49772    0.75396    1.000
    N3581    N        0.73007    0.43594    0.73265    1.000
    N3582    N        0.66687    0.46319    0.72689    1.000
    N3583    N        0.57939    0.31644    0.78803    1.000
    N3584    N        0.50891    0.30877    0.78196    1.000
    Si3585   Si       0.54269    0.31180    0.81020    1.000
    Si3586   Si       0.61093    0.34484    0.79586    1.000
    N3587    N        0.61526    0.37640    0.76528    1.000
    Si3588   Si       0.71397    0.27362    0.78363    1.000
    N3589    N        0.64773    0.32038    0.79226    1.000
    N3590    N        0.54707    0.39352    0.79442    1.000
    N3591    N        0.50873    0.44479    0.77226    1.000
    Si3592   Si       0.57605    0.43022    0.79777    1.000
    Si3593   Si       0.51107    0.44845    0.81530    1.000
    N3594    N        0.58348    0.50802    0.77375    1.000
    Si3595   Si       0.63929    0.39740    0.79644    1.000
    N3596    N        0.64669    0.49529    0.79159    1.000
    N3597    N        0.67828    0.39751    0.77831    1.000
    N3598    N        0.61783    0.43531    0.80527    1.000
    Si3599   Si       0.70337    0.40484    0.81324    1.000
    N3600    N        0.53121    0.34258    0.83870    1.000
    N3601    N        0.54679    0.27356    0.82983    1.000
    Si3602   Si       0.54781    0.26681    0.87328    1.000
    Si3603   Si       0.51557    0.37918    0.81956    1.000
    N3604    N        0.62304    0.37171    0.82743    1.000
    Si3605   Si       0.62614    0.36383    0.86930    1.000
    Si3606   Si       0.72008    0.28404    0.86632    1.000
    N3607    N        0.63303    0.27548    0.84864    1.000
    N3608    N        0.70581    0.36563    0.83269    1.000
    N3609    N        0.65830    0.33069    0.86797    1.000
    Si3610   Si       0.66173    0.30415    0.83092    1.000
    Si3611   Si       0.69608    0.35111    0.87208    1.000
    N3612    N        0.70149    0.28712    0.82466    1.000
    N3613    N        0.50677    0.41456    0.84258    1.000
    Si3614   Si       0.57430    0.46426    0.86084    1.000
    N3615    N        0.55500    0.45854    0.82365    1.000
    N3616    N        0.68035    0.43722    0.83361    1.000
    N3617    N        0.67625    0.50291    0.85334    1.000
    N3618    N        0.61554    0.47954    0.85770    1.000
    Si3619   Si       0.69897    0.46633    0.86377    1.000
    Si3620   Si       0.64476    0.46509    0.82301    1.000
    N3621    N        0.53769    0.36389    0.91458    1.000
    Si3622   Si       0.57956    0.34892    0.92494    1.000
    N3623    N        0.59890    0.33580    0.88908    1.000
    Si3624   Si       0.49856    0.27419    0.91421    1.000
    N3625    N        0.52911    0.30145    0.89054    1.000
    N3626    N        0.58746    0.25824    0.88812    1.000
    Si3627   Si       0.60485    0.25869    0.92821    1.000
    Si3628   Si       0.51997    0.34233    0.88045    1.000
    N3629    N        0.70150    0.26198    0.89894    1.000
    Si3630   Si       0.68152    0.28230    0.93283    1.000
    N3631    N        0.64084    0.28460    0.92089    1.000
    N3632    N        0.72594    0.32241    0.88677    1.000
    Si3633   Si       0.62588    0.30199    0.88303    1.000
    Si3634   Si       0.54125    0.44708    0.91291    1.000
    N3635    N        0.50212    0.42559    0.91462    1.000
    N3636    N        0.57493    0.43094    0.89142    1.000
    N3637    N        0.53968    0.48163    0.88642    1.000
    Si3638   Si       0.60765    0.41983    0.91694    1.000
    N3639    N        0.61808    0.45722    0.93807    1.000
    N3640    N        0.63721    0.39877    0.89310    1.000
    Si3641   Si       0.65720    0.47471    0.93202    1.000
    N3642    N        0.70727    0.38804    0.89570    1.000
    Si3643   Si       0.67558    0.41059    0.91218    1.000
    N3644    N        0.68399    0.45248    0.90384    1.000
    Si3645   Si       0.54955    0.28583    0.96602    1.000
    N3646    N        0.58455    0.31464    0.95526    1.000
    N3647    N        0.51136    0.29625    0.95191    1.000
    Si3648   Si       0.61844    0.31109    0.98281    1.000
    Si3649   Si       0.69232    0.33342    0.98350    1.000
    N3650    N        0.64921    0.34179    0.97277    1.000
    N3651    N        0.70940    0.31221    0.94994    1.000
    N3652    N        0.61978    0.26891    0.99286    1.000
    Si3653   Si       0.63054    0.38254    0.96979    1.000
    N3654    N        0.71068    0.37132    0.99370    1.000
    N3655    N        0.59752    0.38334    0.94367    1.000
    N3656    N        0.55214    0.46311    0.95259    1.000
    N3657    N        0.52616    0.40476    0.97566    1.000
    Si3658   Si       0.58849    0.48738    0.95124    1.000
    Si3659   Si       0.53016    0.45040    0.98671    1.000
    Si3660   Si       0.51237    0.38709    0.93830    1.000
    N3661    N        0.66186    0.40929    0.95473    1.000
    N3662    N        0.67818    0.47571    0.96816    1.000
    N3663    N        0.72599    0.42263    0.95671    1.000
    Si3664   Si       0.68862    0.43366    0.97699    1.000
    N3665    N        0.53514    0.55036    0.02308    1.000
    Si3666   Si       0.55595    0.58805    0.02305    1.000
    N3667    N        0.53016    0.61973    0.00697    1.000
    Si3668   Si       0.55859    0.51374    0.02265    1.000
    Si3669   Si       0.49228    0.55434    0.03583    1.000
    N3670    N        0.59026    0.57721    0.99374    1.000
    Si3671   Si       0.61644    0.54366    0.00303    1.000
    N3672    N        0.63556    0.55544    0.04023    1.000
    N3673    N        0.68974    0.59633    0.01227    1.000
    Si3674   Si       0.73160    0.60923    0.02423    1.000
    Si3675   Si       0.67027    0.57893    0.04855    1.000
    N3676    N        0.52379    0.75411    0.04124    1.000
    Si3677   Si       0.53346    0.71236    0.04184    1.000
    N3678    N        0.54387    0.71092    0.00025    1.000
    N3679    N        0.61043    0.66214    0.04908    1.000
    N3680    N        0.73120    0.65180    0.02772    1.000
    N3681    N        0.62490    0.72181    0.04372    1.000
    N3682    N        0.66615    0.66588    0.01155    1.000
    Si3683   Si       0.70496    0.68276    0.02025    1.000
    Si3684   Si       0.71249    0.74064    0.01445    1.000
    Si3685   Si       0.62883    0.68763    0.01847    1.000
    N3686    N        0.70738    0.71411    0.04927    1.000
    Si3687   Si       0.65343    0.75422    0.05214    1.000
    Si3688   Si       0.60411    0.55851    0.07127    1.000
    N3689    N        0.57915    0.59480    0.06259    1.000
    Si3690   Si       0.55740    0.61148    0.09893    1.000
    N3691    N        0.58060    0.52276    0.05996    1.000
    Si3692   Si       0.61257    0.62603    0.07134    1.000
    N3693    N        0.49355    0.57481    0.07340    1.000
    N3694    N        0.61342    0.54929    0.11184    1.000
    N3695    N        0.65155    0.61210    0.07767    1.000
    N3696    N        0.70153    0.55738    0.06624    1.000
    Si3697   Si       0.73265    0.57835    0.08768    1.000
    Si3698   Si       0.69811    0.51357    0.07193    1.000
    N3699    N        0.52232    0.63493    0.09048    1.000
    N3700    N        0.59227    0.63569    0.10886    1.000
    N3701    N        0.51432    0.75163    0.10889    1.000
    Si3702   Si       0.60216    0.69924    0.07224    1.000
    N3703    N        0.55943    0.69975    0.07259    1.000
    N3704    N        0.49825    0.69342    0.06324    1.000
    Si3705   Si       0.52670    0.67728    0.09357    1.000
    Si3706   Si       0.67760    0.63086    0.11050    1.000
    N3707    N        0.73122    0.73958    0.11086    1.000
    Si3708   Si       0.69902    0.71323    0.09135    1.000
    N3709    N        0.69062    0.67139    0.10003    1.000
    N3710    N        0.66391    0.74013    0.09356    1.000
    N3711    N        0.61420    0.69638    0.11317    1.000
    Si3712   Si       0.58045    0.55157    0.14059    1.000
    N3713    N        0.55210    0.58373    0.13333    1.000
    Si3714   Si       0.52016    0.59584    0.16096    1.000
    N3715    N        0.55653    0.51656    0.13240    1.000
    Si3716   Si       0.64117    0.51434    0.12299    1.000
    N3717    N        0.64834    0.52048    0.16579    1.000
    N3718    N        0.71096    0.60215    0.11610    1.000
    Si3719   Si       0.73650    0.60572    0.15177    1.000
    Si3720   Si       0.49470    0.72213    0.13660    1.000
    N3721    N        0.52245    0.68747    0.13489    1.000
    N3722    N        0.56167    0.74834    0.16690    1.000
    Si3723   Si       0.54599    0.67381    0.16896    1.000
    N3724    N        0.59123    0.67018    0.17178    1.000
    Si3725   Si       0.61488    0.65891    0.13759    1.000
    N3726    N        0.63730    0.74427    0.16433    1.000
    Si3727   Si       0.62977    0.73691    0.11996    1.000
    Si3728   Si       0.72355    0.74406    0.15574    1.000
    N3729    N        0.65239    0.63759    0.14660    1.000
    N3730    N        0.70120    0.70955    0.16500    1.000
    N3731    N        0.71595    0.63959    0.17330    1.000
    N3732    N        0.52020    0.57938    0.20267    1.000
    N3733    N        0.59530    0.55653    0.18044    1.000
    Si3734   Si       0.53888    0.61518    0.21850    1.000
    Si3735   Si       0.58278    0.56003    0.22170    1.000
    N3736    N        0.67292    0.57884    0.18591    1.000
    Si3737   Si       0.63831    0.55338    0.18978    1.000
    Si3738   Si       0.70929    0.56041    0.20466    1.000
    Si3739   Si       0.67488    0.62263    0.17970    1.000
    N3740    N        0.71062    0.51732    0.19939    1.000
    N3741    N        0.67126    0.63017    0.22338    1.000
    N3742    N        0.53359    0.63383    0.17981    1.000
    N3743    N        0.59406    0.73453    0.22167    1.000
    Si3744   Si       0.53285    0.73891    0.19739    1.000
    N3745    N        0.53798    0.69772    0.20514    1.000
    Si3746   Si       0.59834    0.69108    0.20849    1.000
    Si3747   Si       0.60168    0.75917    0.18537    1.000
    N3748    N        0.49508    0.73989    0.17577    1.000
    N3749    N        0.73206    0.68563    0.22502    1.000
    Si3750   Si       0.72955    0.67967    0.18168    1.000
    Si3751   Si       0.66578    0.72027    0.18508    1.000
    N3752    N        0.68444    0.74095    0.21951    1.000
    N3753    N        0.64534    0.68966    0.20602    1.000
    N3754    N        0.51243    0.58329    0.27213    1.000
    N3755    N        0.55380    0.53525    0.24254    1.000
    Si3756   Si       0.51651    0.55527    0.24057    1.000
    Si3757   Si       0.59520    0.62784    0.26259    1.000
    Si3758   Si       0.50689    0.62378    0.28281    1.000
    N3759    N        0.57596    0.60001    0.23633    1.000
    Si3760   Si       0.61866    0.52574    0.27079    1.000
    N3761    N        0.70426    0.57009    0.24694    1.000
    Si3762   Si       0.67650    0.60621    0.25849    1.000
    N3763    N        0.63611    0.62277    0.27379    1.000
    Si3764   Si       0.73467    0.55624    0.27373    1.000
    N3765    N        0.72647    0.51551    0.28539    1.000
    N3766    N        0.62452    0.54694    0.23376    1.000
    N3767    N        0.56145    0.72119    0.28654    1.000
    N3768    N        0.60177    0.66459    0.24075    1.000
    N3769    N        0.52569    0.64306    0.24798    1.000
    Si3770   Si       0.56941    0.75208    0.25319    1.000
    N3771    N        0.49523    0.70180    0.26409    1.000
    Si3772   Si       0.50961    0.68024    0.23056    1.000
    Si3773   Si       0.70181    0.70933    0.24601    1.000
    N3774    N        0.72038    0.72858    0.28064    1.000
    Si3775   Si       0.64731    0.66217    0.24048    1.000
    N3776    N        0.67062    0.68748    0.26682    1.000
    N3777    N        0.51698    0.61325    0.32611    1.000
    Si3778   Si       0.50546    0.57196    0.31523    1.000
    N3779    N        0.53660    0.54107    0.32078    1.000
    Si3780   Si       0.55965    0.61602    0.34123    1.000
    Si3781   Si       0.57619    0.54708    0.33554    1.000
    N3782    N        0.58265    0.62504    0.30551    1.000
    N3783    N        0.61042    0.55237    0.30846    1.000
    Si3784   Si       0.71202    0.59568    0.32716    1.000
    Si3785   Si       0.64071    0.56983    0.34021    1.000
    N3786    N        0.68341    0.56141    0.33207    1.000
    N3787    N        0.63820    0.61163    0.34593    1.000
    N3788    N        0.69840    0.61697    0.29344    1.000
    Si3789   Si       0.52076    0.70968    0.29870    1.000
    Si3790   Si       0.59805    0.71681    0.31255    1.000
    N3791    N        0.50842    0.74227    0.32358    1.000
    N3792    N        0.49793    0.67793    0.32414    1.000
    N3793    N        0.58071    0.73778    0.34585    1.000
    Si3794   Si       0.62363    0.63755    0.31487    1.000
    N3795    N        0.63506    0.73742    0.30597    1.000
    Si3796   Si       0.65930    0.70123    0.30820    1.000
    Si3797   Si       0.73348    0.69889    0.30979    1.000
    N3798    N        0.69578    0.69559    0.33333    1.000
    N3799    N        0.62226    0.67986    0.31945    1.000
    N3800    N        0.57214    0.58058    0.36490    1.000
    Si3801   Si       0.49922    0.56277    0.39969    1.000
    N3802    N        0.52486    0.52866    0.40510    1.000
    N3803    N        0.57744    0.50790    0.35159    1.000
    Si3804   Si       0.68179    0.53157    0.36393    1.000
    N3805    N        0.64142    0.53894    0.37428    1.000
    N3806    N        0.70543    0.54133    0.39765    1.000
    Si3807   Si       0.66621    0.62603    0.37705    1.000
    N3808    N        0.70785    0.61880    0.36268    1.000
    N3809    N        0.54891    0.65056    0.36589    1.000
    Si3810   Si       0.59280    0.73228    0.38669    1.000
    Si3811   Si       0.50759    0.64791    0.35349    1.000
    N3812    N        0.58852    0.69106    0.40215    1.000
    Si3813   Si       0.69757    0.69191    0.37613    1.000
    N3814    N        0.66323    0.66707    0.38872    1.000
    N3815    N        0.63604    0.72850    0.38778    1.000
    Si3816   Si       0.63357    0.68891    0.40681    1.000
    N3817    N        0.58493    0.55059    0.43056    1.000
    N3818    N        0.58453    0.62226    0.42453    1.000
    Si3819   Si       0.55991    0.50947    0.42766    1.000
    N3820    N        0.52506    0.59491    0.41683    1.000
    Si3821   Si       0.49991    0.62865    0.42799    1.000
    Si3822   Si       0.56845    0.58389    0.40829    1.000
    N3823    N        0.66260    0.60165    0.41136    1.000
    Si3824   Si       0.69026    0.54719    0.43772    1.000
    N3825    N        0.64882    0.53422    0.44110    1.000
    Si3826   Si       0.67384    0.61638    0.44945    1.000
    N3827    N        0.71442    0.51385    0.45388    1.000
    Si3828   Si       0.61926    0.53071    0.41081    1.000
    N3829    N        0.69788    0.58244    0.46431    1.000
    N3830    N        0.51295    0.73805    0.45337    1.000
    N3831    N        0.52195    0.66787    0.42790    1.000
    Si3832   Si       0.49845    0.70445    0.43119    1.000
    Si3833   Si       0.56226    0.65720    0.40666    1.000
    N3834    N        0.64181    0.69498    0.44881    1.000
    Si3835   Si       0.68476    0.69414    0.45403    1.000
    Si3836   Si       0.66700    0.75022    0.40989    1.000
    N3837    N        0.69799    0.71810    0.41496    1.000
    N3838    N        0.69836    0.65239    0.45324    1.000
    N3839    N        0.57568    0.58738    0.48693    1.000
    Si3840   Si       0.51252    0.53240    0.50121    1.000
    Si3841   Si       0.58021    0.54594    0.47580    1.000
    N3842    N        0.60318    0.51853    0.50045    1.000
    N3843    N        0.54442    0.51949    0.47135    1.000
    N3844    N        0.53221    0.63274    0.51750    1.000
    Si3845   Si       0.48960    0.63593    0.50881    1.000
    Si3846   Si       0.59747    0.62284    0.46450    1.000
    Si3847   Si       0.72475    0.59047    0.49697    1.000
    Si3848   Si       0.65581    0.60828    0.51308    1.000
    N3849    N        0.63921    0.61674    0.47399    1.000
    N3850    N        0.67623    0.51609    0.50852    1.000
    Si3851   Si       0.63736    0.52859    0.52212    1.000
    N3852    N        0.69798    0.61413    0.51971    1.000
    N3853    N        0.53809    0.70153    0.51224    1.000
    N3854    N        0.58743    0.66204    0.48185    1.000
    Si3855   Si       0.55979    0.66362    0.51499    1.000
    Si3856   Si       0.54536    0.73390    0.48469    1.000
    N3857    N        0.58674    0.73087    0.47466    1.000
    Si3858   Si       0.61128    0.69736    0.48101    1.000
    N3859    N        0.69107    0.72668    0.48550    1.000
    N3860    N        0.63545    0.69558    0.51891    1.000
    N3861    N        0.58031    0.59722    0.55809    1.000
    Si3862   Si       0.50846    0.55789    0.56957    1.000
    N3863    N        0.52831    0.56068    0.53070    1.000
    Si3864   Si       0.55448    0.59456    0.52355    1.000
    Si3865   Si       0.71051    0.52667    0.53468    1.000
    Si3866   Si       0.62334    0.59375    0.56317    1.000
    N3867    N        0.69588    0.55123    0.56675    1.000
    N3868    N        0.63935    0.57192    0.52610    1.000
    N3869    N        0.64481    0.63162    0.55065    1.000
    N3870    N        0.63594    0.51360    0.56547    1.000
    Si3871   Si       0.51767    0.71192    0.54853    1.000
    N3872    N        0.54432    0.74591    0.56788    1.000
    N3873    N        0.58278    0.66669    0.54953    1.000
    N3874    N        0.52374    0.68144    0.58042    1.000
    Si3875   Si       0.68986    0.64049    0.55561    1.000
    Si3876   Si       0.62561    0.67005    0.55293    1.000
    N3877    N        0.69881    0.68127    0.54317    1.000
    N3878    N        0.67311    0.74275    0.55638    1.000
    Si3879   Si       0.73841    0.69618    0.55815    1.000
    Si3880   Si       0.67571    0.71232    0.52322    1.000
    N3881    N        0.57282    0.57662    0.63155    1.000
    Si3882   Si       0.56302    0.60130    0.59772    1.000
    N3883    N        0.52756    0.53153    0.59948    1.000
    Si3884   Si       0.49755    0.60792    0.62875    1.000
    N3885    N        0.52045    0.59628    0.59148    1.000
    Si3886   Si       0.54052    0.54787    0.63550    1.000
    Si3887   Si       0.61549    0.57512    0.64052    1.000
    N3888    N        0.63382    0.57256    0.60031    1.000
    Si3889   Si       0.71765    0.62074    0.63342    1.000
    N3890    N        0.67485    0.51792    0.62346    1.000
    N3891    N        0.70643    0.62160    0.59101    1.000
    N3892    N        0.71692    0.57583    0.63031    1.000
    Si3893   Si       0.65947    0.53976    0.58774    1.000
    Si3894   Si       0.72331    0.58164    0.58538    1.000
    N3895    N        0.57549    0.64123    0.61170    1.000
    N3896    N        0.53159    0.71738    0.63202    1.000
    Si3897   Si       0.50477    0.68538    0.62024    1.000
    N3898    N        0.58916    0.70687    0.60160    1.000
    Si3899   Si       0.56138    0.73856    0.60600    1.000
    Si3900   Si       0.56529    0.67400    0.58727    1.000
    N3901    N        0.50952    0.64965    0.64297    1.000
    Si3902   Si       0.68018    0.71774    0.59136    1.000
    N3903    N        0.72259    0.71352    0.59548    1.000
    N3904    N        0.66023    0.72785    0.63193    1.000
    N3905    N        0.64953    0.68597    0.58713    1.000
    Si3906   Si       0.62607    0.70257    0.62222    1.000
    N3907    N        0.55846    0.51904    0.66488    1.000
    N3908    N        0.50487    0.57056    0.64988    1.000
    Si3909   Si       0.59818    0.50833    0.67432    1.000
    N3910    N        0.49599    0.51100    0.68237    1.000
    Si3911   Si       0.53401    0.52079    0.70142    1.000
    N3912    N        0.62395    0.61256    0.65843    1.000
    N3913    N        0.62285    0.54564    0.67238    1.000
    N3914    N        0.69002    0.53430    0.68610    1.000
    Si3915   Si       0.65567    0.62529    0.68397    1.000
    Si3916   Si       0.70630    0.53747    0.64603    1.000
    N3917    N        0.56789    0.64413    0.68464    1.000
    Si3918   Si       0.52533    0.65529    0.68217    1.000
    N3919    N        0.58124    0.73751    0.67868    1.000
    Si3920   Si       0.53860    0.73007    0.67223    1.000
    Si3921   Si       0.59470    0.64475    0.64984    1.000
    Si3922   Si       0.61090    0.71062    0.69127    1.000
    N3923    N        0.52693    0.69637    0.69661    1.000
    N3924    N        0.69138    0.63777    0.66463    1.000
    Si3925   Si       0.73579    0.72564    0.69550    1.000
    N3926    N        0.69775    0.74660    0.69189    1.000
    N3927    N        0.61653    0.68193    0.65817    1.000
    Si3928   Si       0.72138    0.64681    0.69593    1.000
    N3929    N        0.57793    0.61306    0.74400    1.000
    Si3930   Si       0.53576    0.59931    0.73381    1.000
    N3931    N        0.54000    0.56024    0.71879    1.000
    N3932    N        0.50696    0.62533    0.70906    1.000
    Si3933   Si       0.70603    0.59883    0.73199    1.000
    N3934    N        0.64497    0.53316    0.74204    1.000
    N3935    N        0.66934    0.59129    0.70839    1.000
    Si3936   Si       0.65373    0.55181    0.70299    1.000
    N3937    N        0.70897    0.50865    0.75816    1.000
    Si3938   Si       0.59116    0.64627    0.71967    1.000
    N3939    N        0.59038    0.69219    0.72786    1.000
    Si3940   Si       0.54808    0.70301    0.73396    1.000
    N3941    N        0.54294    0.74349    0.74779    1.000
    Si3942   Si       0.62179    0.71136    0.75104    1.000
    N3943    N        0.63946    0.73136    0.71638    1.000
    Si3944   Si       0.65877    0.65328    0.75097    1.000
    N3945    N        0.69938    0.64325    0.73658    1.000
    N3946    N        0.63481    0.64706    0.71589    1.000
    Si3947   Si       0.59950    0.60868    0.78145    1.000
    N3948    N        0.51746    0.61077    0.77196    1.000
    Si3949   Si       0.50306    0.57935    0.79876    1.000
    N3950    N        0.60931    0.56961    0.79941    1.000
    N3951    N        0.48883    0.53857    0.79272    1.000
    Si3952   Si       0.61875    0.53188    0.77756    1.000
    Si3953   Si       0.67926    0.60273    0.79784    1.000
    N3954    N        0.64572    0.61988    0.77719    1.000
    Si3955   Si       0.72814    0.54243    0.77948    1.000
    N3956    N        0.70713    0.57917    0.77127    1.000
    N3957    N        0.57856    0.63595    0.80758    1.000
    Si3958   Si       0.53780    0.64243    0.79409    1.000
    Si3959   Si       0.52003    0.70061    0.79657    1.000
    N3960    N        0.60284    0.73552    0.78188    1.000
    N3961    N        0.53866    0.67677    0.76631    1.000
    Si3962   Si       0.56306    0.75488    0.78654    1.000
    N3963    N        0.54159    0.73212    0.81750    1.000
    N3964    N        0.65671    0.69391    0.76416    1.000
    Si3965   Si       0.72742    0.66599    0.81397    1.000
    N3966    N        0.72583    0.70129    0.78318    1.000
    N3967    N        0.69435    0.75898    0.76393    1.000
    Si3968   Si       0.68610    0.72000    0.78275    1.000
    Si3969   Si       0.51956    0.57510    0.86639    1.000
    N3970    N        0.53402    0.58153    0.82674    1.000
    N3971    N        0.50170    0.53461    0.86542    1.000
    N3972    N        0.61801    0.54954    0.86804    1.000
    N3973    N        0.63087    0.62110    0.84850    1.000
    Si3974   Si       0.62804    0.57811    0.83984    1.000
    Si3975   Si       0.69502    0.54193    0.84566    1.000
    N3976    N        0.67013    0.57358    0.82888    1.000
    N3977    N        0.73221    0.53213    0.82182    1.000
    Si3978   Si       0.63833    0.51117    0.87487    1.000
    N3979    N        0.71697    0.55974    0.87878    1.000
    Si3980   Si       0.53322    0.74839    0.85661    1.000
    Si3981   Si       0.52485    0.67216    0.86757    1.000
    Si3982   Si       0.59392    0.64857    0.84500    1.000
    N3983    N        0.51386    0.66826    0.82543    1.000
    N3984    N        0.60579    0.69126    0.84673    1.000
    N3985    N        0.56039    0.64936    0.87380    1.000
    Si3986   Si       0.66866    0.64077    0.85471    1.000
    N3987    N        0.66599    0.68025    0.87538    1.000
    Si3988   Si       0.62167    0.72993    0.82287    1.000
    N3989    N        0.69160    0.63953    0.81864    1.000
    Si3990   Si       0.68682    0.71419    0.85502    1.000
    N3991    N        0.66495    0.72448    0.82114    1.000
    N3992    N        0.72377    0.69117    0.84816    1.000
    Si3993   Si       0.59026    0.55582    0.90179    1.000
    N3994    N        0.55225    0.57417    0.89513    1.000
    N3995    N        0.58554    0.51805    0.92175    1.000
    Si3996   Si       0.51620    0.51411    0.90242    1.000
    Si3997   Si       0.53240    0.58624    0.93326    1.000
    N3998    N        0.51437    0.54611    0.93645    1.000
    N3999    N        0.61980    0.57253    0.93064    1.000
    Si4000   Si       0.70997    0.59185    0.90814    1.000
    N4001    N        0.68582    0.62398    0.89164    1.000
    N4002    N        0.65323    0.51445    0.91511    1.000
    N4003    N        0.49476    0.66246    0.89625    1.000
    Si4004   Si       0.52820    0.71544    0.92404    1.000
    Si4005   Si       0.57000    0.65076    0.91624    1.000
    N4006    N        0.52566    0.71231    0.88099    1.000
    N4007    N        0.61108    0.66005    0.91146    1.000
    N4008    N        0.55809    0.68619    0.93586    1.000
    N4009    N        0.70788    0.74117    0.88009    1.000
    Si4010   Si       0.62531    0.69320    0.88609    1.000
    N4011    N        0.62285    0.73451    0.89961    1.000
    Si4012   Si       0.68799    0.66163    0.91883    1.000
    N4013    N        0.72753    0.68329    0.91459    1.000
    Si4014   Si       0.64012    0.73198    0.94123    1.000
    Si4015   Si       0.60228    0.59978    0.95963    1.000
    N4016    N        0.49807    0.61024    0.94642    1.000
    Si4017   Si       0.49067    0.61766    0.98863    1.000
    N4018    N        0.56733    0.61538    0.94072    1.000
    N4019    N        0.59136    0.50924    0.99181    1.000
    Si4020   Si       0.71050    0.56903    0.98115    1.000
    N4021    N        0.65288    0.53642    0.98017    1.000
    N4022    N        0.63422    0.62651    0.96988    1.000
    N4023    N        0.69245    0.57165    0.94280    1.000
    Si4024   Si       0.65512    0.54817    0.93947    1.000
    Si4025   Si       0.67165    0.63050    0.98994    1.000
    N4026    N        0.71862    0.52894    0.99574    1.000
    Si4027   Si       0.53095    0.75435    0.99009    1.000
    N4028    N        0.60453    0.68233    0.98252    1.000
    N4029    N        0.60656    0.74418    0.96673    1.000
    N4030    N        0.54349    0.74761    0.94820    1.000
    Si4031   Si       0.57575    0.71173    0.96810    1.000
    N4032    N        0.71481    0.70914    0.98552    1.000
    N4033    N        0.70096    0.64093    0.95787    1.000
    Si4034   Si       0.62518    0.66442    0.95077    1.000
    N4035    N        0.65666    0.69282    0.94043    1.000
    Si4036   Si       0.54442    0.79398    0.04289    1.000
    N4037    N        0.56029    0.78502    0.00421    1.000
    N4038    N        0.54286    0.87484    0.03695    1.000
    Si4039   Si       0.52798    0.87554    0.99597    1.000
    N4040    N        0.50514    0.83816    0.99681    1.000
    N4041    N        0.60917    0.86388    0.03111    1.000
    Si4042   Si       0.63397    0.82759    0.02652    1.000
    N4043    N        0.67259    0.84516    0.03463    1.000
    Si4044   Si       0.71400    0.86351    0.03367    1.000
    N4045    N        0.67617    0.76383    0.01667    1.000
    N4046    N        0.50294    0.92391    0.04260    1.000
    N4047    N        0.60936    0.92661    0.02644    1.000
    Si4048   Si       0.50164    0.00505    0.02132    1.000
    Si4049   Si       0.60150    0.89439    0.99724    1.000
    N4050    N        0.70988    0.89398    0.00308    1.000
    Si4051   Si       0.62722    0.96619    0.01636    1.000
    Si4052   Si       0.68470    0.00213    0.05152    1.000
    N4053    N        0.64240    0.98642    0.05259    1.000
    N4054    N        0.50755    0.80653    0.06734    1.000
    N4055    N        0.53798    0.86347    0.09817    1.000
    Si4056   Si       0.57241    0.85872    0.06591    1.000
    Si4057   Si       0.60480    0.79748    0.08992    1.000
    N4058    N        0.57252    0.81520    0.06604    1.000
    Si4059   Si       0.51807    0.82810    0.10690    1.000
    Si4060   Si       0.49491    0.76387    0.07187    1.000
    N4061    N        0.59330    0.75833    0.10757    1.000
    N4062    N        0.63935    0.79928    0.06263    1.000
    N4063    N        0.70708    0.80378    0.08121    1.000
    Si4064   Si       0.67241    0.82440    0.07401    1.000
    N4065    N        0.66065    0.85324    0.10481    1.000
    Si4066   Si       0.73307    0.78565    0.10884    1.000
    N4067    N        0.60264    0.88397    0.09121    1.000
    Si4068   Si       0.51375    0.89099    0.07180    1.000
    Si4069   Si       0.50495    0.95738    0.07061    1.000
    N4070    N        0.60516    0.95949    0.10262    1.000
    N4071    N        0.51497    0.92796    0.10177    1.000
    N4072    N        0.52468    0.99089    0.05491    1.000
    N4073    N        0.55629    0.00624    0.11306    1.000
    N4074    N        0.71314    0.97274    0.05863    1.000
    Si4075   Si       0.68296    0.89187    0.09953    1.000
    N4076    N        0.65757    0.92020    0.07680    1.000
    N4077    N        0.71518    0.88206    0.07197    1.000
    Si4078   Si       0.64609    0.96124    0.08695    1.000
    Si4079   Si       0.62602    0.89706    0.05661    1.000
    N4080    N        0.54293    0.80333    0.13773    1.000
    Si4081   Si       0.57736    0.81879    0.16226    1.000
    Si4082   Si       0.50797    0.80937    0.16888    1.000
    Si4083   Si       0.55354    0.76179    0.12627    1.000
    N4084    N        0.58309    0.86338    0.16098    1.000
    N4085    N        0.60768    0.81954    0.12669    1.000
    Si4086   Si       0.61791    0.86135    0.12976    1.000
    N4087    N        0.71683    0.78620    0.15020    1.000
    N4088    N        0.72562    0.85699    0.15806    1.000
    Si4089   Si       0.59605    0.99563    0.12405    1.000
    Si4090   Si       0.52656    0.92879    0.14368    1.000
    N4091    N        0.56938    0.93002    0.14733    1.000
    N4092    N        0.51846    0.96789    0.16318    1.000
    Si4093   Si       0.60062    0.91931    0.11900    1.000
    N4094    N        0.59571    0.99100    0.16680    1.000
    N4095    N        0.73414    0.96989    0.15169    1.000
    Si4096   Si       0.69184    0.95601    0.14454    1.000
    Si4097   Si       0.70884    0.89419    0.17315    1.000
    N4098    N        0.67079    0.98025    0.11647    1.000
    N4099    N        0.63114    0.90234    0.14263    1.000
    N4100    N        0.69758    0.91397    0.13568    1.000
    N4101    N        0.53670    0.83004    0.19553    1.000
    N4102    N        0.60270    0.80049    0.19456    1.000
    Si4103   Si       0.54900    0.87136    0.18712    1.000
    Si4104   Si       0.51171    0.80368    0.23499    1.000
    N4105    N        0.53549    0.76604    0.23202    1.000
    N4106    N        0.56138    0.88575    0.22718    1.000
    N4107    N        0.68512    0.81537    0.20351    1.000
    Si4108   Si       0.67418    0.85143    0.22460    1.000
    Si4109   Si       0.71836    0.81896    0.17537    1.000
    N4110    N        0.51600    0.89865    0.17310    1.000
    Si4111   Si       0.51607    0.97003    0.20585    1.000
    N4112    N        0.55370    0.95291    0.21645    1.000
    Si4113   Si       0.58325    0.95292    0.18106    1.000
    N4114    N        0.61104    0.92725    0.20331    1.000
    N4115    N        0.51851    0.00718    0.22610    1.000
    N4116    N        0.67022    0.88549    0.19505    1.000
    Si4117   Si       0.67400    0.98276    0.21568    1.000
    N4118    N        0.67171    0.95366    0.18300    1.000
    N4119    N        0.71767    0.98718    0.22044    1.000
    N4120    N        0.72905    0.90851    0.20710    1.000
    Si4121   Si       0.64524    0.91702    0.18013    1.000
    N4122    N        0.58937    0.78936    0.26208    1.000
    N4123    N        0.52410    0.83508    0.26201    1.000
    Si4124   Si       0.54966    0.86803    0.26527    1.000
    N4125    N        0.58587    0.85211    0.28377    1.000
    Si4126   Si       0.61966    0.87563    0.27252    1.000
    Si4127   Si       0.61980    0.80948    0.23828    1.000
    N4128    N        0.63579    0.84946    0.24267    1.000
    N4129    N        0.65292    0.78811    0.25767    1.000
    N4130    N        0.72118    0.78959    0.25648    1.000
    N4131    N        0.71291    0.85504    0.24448    1.000
    Si4132   Si       0.68733    0.78215    0.23125    1.000
    N4133    N        0.53204    0.90108    0.28770    1.000
    N4134    N        0.60561    0.91690    0.26954    1.000
    N4135    N        0.59918    0.99087    0.28516    1.000
    Si4136   Si       0.58095    0.92253    0.23420    1.000
    N4137    N        0.65616    0.98171    0.25498    1.000
    N4138    N        0.67972    0.91053    0.26564    1.000
    N4139    N        0.71854    0.96584    0.28686    1.000
    Si4140   Si       0.71642    0.89718    0.24674    1.000
    Si4141   Si       0.73245    0.99764    0.26025    1.000
    Si4142   Si       0.67451    0.97004    0.29136    1.000
    N4143    N        0.55059    0.79719    0.31676    1.000
    Si4144   Si       0.51461    0.81310    0.29849    1.000
    Si4145   Si       0.58762    0.81246    0.30069    1.000
    N4146    N        0.49804    0.84259    0.33010    1.000
    Si4147   Si       0.54414    0.76120    0.34022    1.000
    N4148    N        0.62638    0.80867    0.32009    1.000
    N4149    N        0.69145    0.78241    0.31832    1.000
    Si4150   Si       0.64712    0.84359    0.33957    1.000
    Si4151   Si       0.65216    0.77698    0.29859    1.000
    N4152    N        0.64278    0.87485    0.31048    1.000
    Si4153   Si       0.72229    0.86946    0.34216    1.000
    Si4154   Si       0.72488    0.76977    0.29504    1.000
    N4155    N        0.68768    0.84412    0.34903    1.000
    Si4156   Si       0.54492    0.91059    0.32910    1.000
    N4157    N        0.57721    0.93721    0.32964    1.000
    N4158    N        0.50413    0.91704    0.34148    1.000
    N4159    N        0.54699    0.99271    0.33849    1.000
    Si4160   Si       0.60598    0.94846    0.29893    1.000
    Si4161   Si       0.49218    0.91521    0.29750    1.000
    N4162    N        0.67258    0.00173    0.32208    1.000
    N4163    N        0.70739    0.90692    0.32806    1.000
    Si4164   Si       0.73767    0.93068    0.30395    1.000
    N4165    N        0.64768    0.94605    0.31680    1.000
    Si4166   Si       0.66788    0.90804    0.30820    1.000
    Si4167   Si       0.65149    0.97606    0.35003    1.000
    Si4168   Si       0.58334    0.85720    0.37812    1.000
    Si4169   Si       0.52349    0.84978    0.36617    1.000
    N4170    N        0.55393    0.82555    0.38711    1.000
    N4171    N        0.52189    0.76944    0.37795    1.000
    N4172    N        0.49612    0.87168    0.39315    1.000
    N4173    N        0.55546    0.87803    0.35332    1.000
    N4174    N        0.62379    0.84540    0.37640    1.000
    N4175    N        0.68015    0.78922    0.39240    1.000
    Si4176   Si       0.70237    0.80481    0.35664    1.000
    N4177    N        0.61131    0.98952    0.36160    1.000
    Si4178   Si       0.50980    0.00191    0.35855    1.000
    Si4179   Si       0.57299    0.96688    0.36130    1.000
    N4180    N        0.55618    0.94546    0.39394    1.000
    N4181    N        0.51506    0.99608    0.40325    1.000
    N4182    N        0.66855    0.96164    0.38636    1.000
    N4183    N        0.53070    0.80343    0.44516    1.000
    Si4184   Si       0.60423    0.76407    0.45241    1.000
    N4185    N        0.58315    0.76563    0.41250    1.000
    N4186    N        0.59153    0.87834    0.41611    1.000
    N4187    N        0.50602    0.87309    0.46320    1.000
    Si4188   Si       0.49091    0.78347    0.45184    1.000
    Si4189   Si       0.54591    0.78770    0.40805    1.000
    Si4190   Si       0.63346    0.86357    0.41502    1.000
    N4191    N        0.70840    0.85072    0.41810    1.000
    N4192    N        0.64700    0.83375    0.44321    1.000
    N4193    N        0.70956    0.79053    0.45153    1.000
    Si4194   Si       0.68238    0.81675    0.42674    1.000
    N4195    N        0.64731    0.76313    0.44718    1.000
    N4196    N        0.55630    0.92117    0.45510    1.000
    Si4197   Si       0.57956    0.91851    0.41948    1.000
    N4198    N        0.56211    0.98729    0.45545    1.000
    Si4199   Si       0.53061    0.96493    0.42795    1.000
    N4200    N        0.49788    0.94575    0.44750    1.000
    N4201    N        0.67762    0.96667    0.44698    1.000
    Si4202   Si       0.70442    0.96491    0.41070    1.000
    N4203    N        0.61209    0.94329    0.43398    1.000
    N4204    N        0.71823    0.92371    0.40858    1.000
    N4205    N        0.65832    0.89926    0.41521    1.000
    Si4206   Si       0.69851    0.89183    0.42761    1.000
    Si4207   Si       0.65200    0.94330    0.42063    1.000
    N4208    N        0.73510    0.99560    0.40798    1.000
    Si4209   Si       0.65282    0.99885    0.46770    1.000
    Si4210   Si       0.55343    0.80663    0.48203    1.000
    Si4211   Si       0.50809    0.86466    0.50599    1.000
    N4212    N        0.54415    0.84100    0.50666    1.000
    N4213    N        0.53883    0.77250    0.50545    1.000
    N4214    N        0.59519    0.80039    0.47601    1.000
    N4215    N        0.61746    0.85235    0.51282    1.000
    Si4216   Si       0.63250    0.82130    0.48469    1.000
    N4217    N        0.66082    0.79475    0.50603    1.000
    Si4218   Si       0.68084    0.76857    0.47631    1.000
    N4219    N        0.73227    0.80284    0.51991    1.000
    N4220    N        0.52102    0.90548    0.51301    1.000
    N4221    N        0.58157    0.93579    0.51160    1.000
    Si4222   Si       0.58906    0.95443    0.47202    1.000
    N4223    N        0.52703    0.99932    0.51821    1.000
    Si4224   Si       0.51764    0.91330    0.47006    1.000
    N4225    N        0.70385    0.94089    0.52025    1.000
    N4226    N        0.62566    0.97272    0.49097    1.000
    Si4227   Si       0.70317    0.94860    0.47639    1.000
    N4228    N        0.70063    0.90522    0.46761    1.000
    Si4229   Si       0.71390    0.89857    0.51048    1.000
    N4230    N        0.57089    0.81359    0.55845    1.000
    Si4231   Si       0.54262    0.78348    0.54962    1.000
    N4232    N        0.50234    0.79467    0.55967    1.000
    Si4233   Si       0.57899    0.84724    0.53286    1.000
    N4234    N        0.57382    0.88089    0.55775    1.000
    N4235    N        0.69370    0.81720    0.57091    1.000
    Si4236   Si       0.66488    0.78473    0.54928    1.000
    Si4237   Si       0.71395    0.83512    0.54020    1.000
    Si4238   Si       0.64561    0.87693    0.53475    1.000
    N4239    N        0.68713    0.86572    0.52420    1.000
    N4240    N        0.63448    0.79906    0.58014    1.000
    N4241    N        0.64699    0.87051    0.57756    1.000
    Si4242   Si       0.49733    0.99439    0.54748    1.000
    Si4243   Si       0.55436    0.91432    0.53922    1.000
    N4244    N        0.59820    0.97913    0.56242    1.000
    N4245    N        0.53857    0.93778    0.57058    1.000
    Si4246   Si       0.49699    0.93158    0.57823    1.000
    Si4247   Si       0.55869    0.97510    0.57986    1.000
    N4248    N        0.63796    0.91978    0.54279    1.000
    Si4249   Si       0.61710    0.95598    0.52924    1.000
    Si4250   Si       0.69512    0.95916    0.55630    1.000
    N4251    N        0.73262    0.97941    0.56848    1.000
    N4252    N        0.66452    0.98790    0.55347    1.000
    Si4253   Si       0.63191    0.99837    0.58187    1.000
    N4254    N        0.58073    0.77427    0.62230    1.000
    N4255    N        0.58809    0.84129    0.61813    1.000
    Si4256   Si       0.59298    0.80499    0.59492    1.000
    Si4257   Si       0.58712    0.88189    0.59962    1.000
    Si4258   Si       0.48937    0.86259    0.62412    1.000
    N4259    N        0.51810    0.83294    0.63953    1.000
    N4260    N        0.68290    0.83596    0.63178    1.000
    Si4261   Si       0.71395    0.81146    0.60963    1.000
    N4262    N        0.70617    0.77316    0.62887    1.000
    Si4263   Si       0.65715    0.83261    0.59372    1.000
    N4264    N        0.56196    0.96975    0.62522    1.000
    N4265    N        0.55783    0.89516    0.63147    1.000
    Si4266   Si       0.51658    0.97919    0.63080    1.000
    Si4267   Si       0.57907    0.93173    0.63755    1.000
    N4268    N        0.61209    0.91610    0.61112    1.000
    Si4269   Si       0.58633    0.00411    0.63539    1.000
    N4270    N        0.52194    0.99944    0.58429    1.000
    N4271    N        0.68608    0.93030    0.58925    1.000
    Si4272   Si       0.64575    0.91351    0.58512    1.000
    N4273    N        0.63075    0.99851    0.62527    1.000
    Si4274   Si       0.71367    0.92386    0.62248    1.000
    N4275    N        0.58903    0.80582    0.68660    1.000
    Si4276   Si       0.59881    0.77224    0.66150    1.000
    Si4277   Si       0.49794    0.79734    0.65781    1.000
    N4278    N        0.51623    0.76520    0.68282    1.000
    Si4279   Si       0.55659    0.85460    0.64843    1.000
    N4280    N        0.55779    0.86389    0.69182    1.000
    N4281    N        0.72881    0.84592    0.68065    1.000
    N4282    N        0.64330    0.78561    0.66484    1.000
    N4283    N        0.65211    0.85665    0.69012    1.000
    Si4284   Si       0.68876    0.86014    0.66539    1.000
    Si4285   Si       0.63068    0.81780    0.69591    1.000
    Si4286   Si       0.67618    0.75998    0.65590    1.000
    N4287    N        0.58479    0.93373    0.68131    1.000
    N4288    N        0.50577    0.96069    0.67060    1.000
    N4289    N        0.64794    0.92584    0.70224    1.000
    N4290    N        0.62812    0.99232    0.69191    1.000
    Si4291   Si       0.68610    0.93750    0.68703    1.000
    N4292    N        0.69272    0.90493    0.65678    1.000
    N4293    N        0.69050    0.97511    0.66582    1.000
    Si4294   Si       0.65613    0.00249    0.66092    1.000
    Si4295   Si       0.72632    0.99247    0.64709    1.000
    N4296    N        0.53150    0.81052    0.73015    1.000
    Si4297   Si       0.56835    0.83119    0.71964    1.000
    Si4298   Si       0.51750    0.77091    0.72629    1.000
    N4299    N        0.60838    0.83663    0.73576    1.000
    Si4300   Si       0.51292    0.84046    0.75485    1.000
    N4301    N        0.72911    0.87473    0.74423    1.000
    N4302    N        0.65834    0.80152    0.72569    1.000
    N4303    N        0.65683    0.87262    0.75497    1.000
    Si4304   Si       0.67255    0.76060    0.72475    1.000
    Si4305   Si       0.64783    0.82704    0.75827    1.000
    N4306    N        0.59858    0.90095    0.73712    1.000
    Si4307   Si       0.50608    0.96141    0.71215    1.000
    N4308    N        0.53788    0.93153    0.72808    1.000
    Si4309   Si       0.56277    0.90439    0.70634    1.000
    N4310    N        0.51373    0.98605    0.74790    1.000
    Si4311   Si       0.63937    0.99612    0.75660    1.000
    N4312    N        0.68009    0.00363    0.74212    1.000
    Si4313   Si       0.63840    0.88745    0.72024    1.000
    Si4314   Si       0.61628    0.95289    0.70680    1.000
    N4315    N        0.71065    0.93809    0.72192    1.000
    Si4316   Si       0.71316    0.97472    0.74742    1.000
    N4317    N        0.61851    0.95993    0.75105    1.000
    N4318    N        0.49470    0.81862    0.78723    1.000
    N4319    N        0.55810    0.79423    0.80460    1.000
    Si4320   Si       0.59666    0.86478    0.76963    1.000
    N4321    N        0.55400    0.85678    0.76355    1.000
    N4322    N        0.62290    0.82969    0.79448    1.000
    N4323    N        0.68513    0.82593    0.78228    1.000
    Si4324   Si       0.71484    0.79335    0.78154    1.000
    Si4325   Si       0.69685    0.86863    0.77276    1.000
    N4326    N        0.69837    0.87656    0.81436    1.000
    Si4327   Si       0.66337    0.84391    0.81807    1.000
    Si4328   Si       0.52991    0.94811    0.76743    1.000
    N4329    N        0.60829    0.89561    0.79934    1.000
    N4330    N        0.56301    0.94548    0.79626    1.000
    N4331    N        0.49968    0.92066    0.78213    1.000
    Si4332   Si       0.59675    0.93132    0.77293    1.000
    N4333    N        0.64996    0.00058    0.79963    1.000
    N4334    N        0.71574    0.97223    0.79122    1.000
    Si4335   Si       0.69273    0.00545    0.80492    1.000
    N4336    N        0.57959    0.84771    0.84021    1.000
    N4337    N        0.50652    0.84121    0.85335    1.000
    Si4338   Si       0.54426    0.86562    0.85731    1.000
    N4339    N        0.50179    0.77606    0.84856    1.000
    Si4340   Si       0.51962    0.80738    0.82216    1.000
    N4341    N        0.61054    0.77119    0.83631    1.000
    Si4342   Si       0.59448    0.81051    0.82271    1.000
    N4343    N        0.67653    0.81741    0.85148    1.000
    N4344    N        0.64092    0.86465    0.85090    1.000
    Si4345   Si       0.71871    0.81343    0.86052    1.000
    N4346    N        0.73565    0.79842    0.82134    1.000
    Si4347   Si       0.49389    0.91207    0.82591    1.000
    Si4348   Si       0.60520    0.88566    0.83998    1.000
    N4349    N        0.59683    0.92375    0.86072    1.000
    N4350    N        0.54675    0.96904    0.86193    1.000
    N4351    N        0.53257    0.90400    0.84126    1.000
    Si4352   Si       0.56274    0.93690    0.83809    1.000
    Si4353   Si       0.50517    0.98149    0.84827    1.000
    N4354    N        0.52207    0.00453    0.81463    1.000
    N4355    N        0.71779    0.91529    0.87799    1.000
    N4356    N        0.63606    0.98785    0.86829    1.000
    Si4357   Si       0.72722    0.88888    0.84412    1.000
    N4358    N        0.55066    0.85435    0.90145    1.000
    Si4359   Si       0.50783    0.83874    0.90121    1.000
    Si4360   Si       0.58918    0.83164    0.90900    1.000
    N4361    N        0.60625    0.86876    0.92121    1.000
    Si4362   Si       0.54509    0.78049    0.92324    1.000
    N4363    N        0.56055    0.77048    0.88338    1.000
    N4364    N        0.50935    0.80565    0.92759    1.000
    Si4365   Si       0.60386    0.76757    0.87968    1.000
    N4366    N        0.49005    0.87621    0.91566    1.000
    N4367    N        0.67124    0.85379    0.91822    1.000
    N4368    N        0.71594    0.80354    0.90532    1.000
    Si4369   Si       0.70717    0.76290    0.91837    1.000
    Si4370   Si       0.65316    0.83811    0.88159    1.000
    N4371    N        0.62009    0.80952    0.88853    1.000
    Si4372   Si       0.70947    0.83495    0.93498    1.000
    Si4373   Si       0.56660    0.88601    0.93081    1.000
    N4374    N        0.53559    0.99517    0.92258    1.000
    N4375    N        0.54533    0.92249    0.92140    1.000
    N4376    N        0.59812    0.96864    0.91981    1.000
    Si4377   Si       0.55656    0.96086    0.90421    1.000
    Si4378   Si       0.49297    0.99054    0.91643    1.000
    Si4379   Si       0.50480    0.91389    0.93372    1.000
    Si4380   Si       0.62217    0.94992    0.88593    1.000
    Si4381   Si       0.67377    0.00378    0.88175    1.000
    N4382    N        0.64853    0.92106    0.90223    1.000
    N4383    N        0.69122    0.97397    0.90680    1.000
    Si4384   Si       0.69029    0.93136    0.90688    1.000
    Si4385   Si       0.64539    0.88661    0.92933    1.000
    Si4386   Si       0.72846    0.98468    0.92780    1.000
    Si4387   Si       0.59381    0.78470    0.97750    1.000
    N4388    N        0.57751    0.80318    0.94060    1.000
    N4389    N        0.56745    0.88560    0.97534    1.000
    N4390    N        0.49103    0.77081    0.98062    1.000
    N4391    N        0.62983    0.80429    0.98978    1.000
    Si4392   Si       0.66851    0.78685    0.97890    1.000
    N4393    N        0.70311    0.81159    0.97205    1.000
    N4394    N        0.67072    0.76182    0.94232    1.000
    N4395    N        0.50069    0.90438    0.97724    1.000
    N4396    N        0.60171    0.99060    0.99101    1.000
    Si4397   Si       0.61232    0.99914    0.94849    1.000
    N4398    N        0.69849    0.91711    0.94509    1.000
    Si4399   Si       0.73370    0.90009    0.96632    1.000
    Si4400   Si       0.68370    0.99308    0.98167    1.000
    N4401    N        0.63992    0.89462    0.97355    1.000
    N4402    N        0.72435    0.98697    0.97134    1.000
    Si4403   Si       0.67660    0.91556    0.98403    1.000
    N4404    N        0.66556    0.95520    0.99661    1.000
    N4405    N        0.79081    0.09846    0.03073    1.000
    Si4406   Si       0.79745    0.05428    0.02089    1.000
    N4407    N        0.75801    0.03693    0.01114    1.000
    Si4408   Si       0.82162    0.12326    0.01342    1.000
    N4409    N        0.85812    0.10071    0.01229    1.000
    Si4410   Si       0.86421    0.02184    0.00295    1.000
    N4411    N        0.94090    0.06486    0.03343    1.000
    N4412    N        0.87875    0.02895    0.04373    1.000
    Si4413   Si       0.92009    0.02924    0.04646    1.000
    N4414    N        0.98005    0.11376    0.99466    1.000
    N4415    N        0.78736    0.22213    0.03208    1.000
    N4416    N        0.83247    0.15599    0.04220    1.000
    Si4417   Si       0.75025    0.23373    0.05048    1.000
    N4418    N        0.85374    0.21710    0.04894    1.000
    N4419    N        0.90486    0.16233    0.04575    1.000
    Si4420   Si       0.86625    0.18067    0.02754    1.000
    N4421    N        0.90215    0.22245    0.00782    1.000
    Si4422   Si       0.92930    0.19300    0.02545    1.000
    Si4423   Si       0.87619    0.25226    0.03064    1.000
    N4424    N        0.95550    0.17548    0.99570    1.000
    Si4425   Si       0.78280    0.04473    0.09186    1.000
    Si4426   Si       0.77187    0.10916    0.06875    1.000
    N4427    N        0.80743    0.11444    0.09630    1.000
    N4428    N        0.75267    0.07550    0.08795    1.000
    Si4429   Si       0.85408    0.03300    0.08034    1.000
    N4430    N        0.81182    0.04215    0.06101    1.000
    N4431    N        0.86599    0.06806    0.10515    1.000
    N4432    N        0.93864    0.03593    0.08968    1.000
    N4433    N        0.92293    0.10038    0.08934    1.000
    Si4434   Si       0.95252    0.07476    0.07187    1.000
    N4435    N        0.74572    0.14273    0.08150    1.000
    Si4436   Si       0.76318    0.17546    0.10344    1.000
    Si4437   Si       0.82995    0.14980    0.08593    1.000
    N4438    N        0.80475    0.18365    0.09596    1.000
    N4439    N        0.75155    0.21654    0.09033    1.000
    Si4440   Si       0.81454    0.21485    0.06638    1.000
    N4441    N        0.80997    0.25229    0.09228    1.000
    Si4442   Si       0.90768    0.14107    0.08509    1.000
    N4443    N        0.86869    0.14790    0.10357    1.000
    N4444    N        0.93776    0.15941    0.10983    1.000
    N4445    N        0.98833    0.14579    0.06262    1.000
    Si4446   Si       0.96707    0.17909    0.08395    1.000
    Si4447   Si       0.94482    0.25032    0.07056    1.000
    N4448    N        0.94836    0.20935    0.05949    1.000
    N4449    N        0.84220    0.11295    0.15639    1.000
    N4450    N        0.80405    0.05376    0.12955    1.000
    Si4451   Si       0.83179    0.08901    0.12096    1.000
    Si4452   Si       0.74649    0.00915    0.13535    1.000
    Si4453   Si       0.79557    0.04906    0.17110    1.000
    Si4454   Si       0.94394    0.01997    0.12954    1.000
    N4455    N        0.91802    0.04643    0.15469    1.000
    N4456    N        0.90485    0.11473    0.15159    1.000
    N4457    N        0.98082    0.11040    0.13123    1.000
    Si4458   Si       0.90455    0.07860    0.12419    1.000
    N4459    N        0.98552    0.03492    0.13622    1.000
    N4460    N        0.75041    0.17150    0.14499    1.000
    Si4461   Si       0.83272    0.22660    0.16487    1.000
    N4462    N        0.85477    0.19036    0.15560    1.000
    N4463    N        0.78983    0.22164    0.15653    1.000
    Si4464   Si       0.77730    0.24086    0.11919    1.000
    Si4465   Si       0.87203    0.15072    0.14873    1.000
    N4466    N        0.97527    0.22686    0.16999    1.000
    Si4467   Si       0.94428    0.13437    0.14384    1.000
    Si4468   Si       0.98727    0.23914    0.12821    1.000
    N4469    N        0.83123    0.03784    0.19236    1.000
    Si4470   Si       0.80978    0.11768    0.18510    1.000
    N4471    N        0.83504    0.10463    0.21907    1.000
    Si4472   Si       0.84931    0.06240    0.22257    1.000
    N4473    N        0.77917    0.08826    0.17992    1.000
    N4474    N        0.76422    0.01742    0.17224    1.000
    N4475    N        0.89171    0.07948    0.21263    1.000
    Si4476   Si       0.91727    0.04665    0.19841    1.000
    N4477    N        0.95575    0.04847    0.21787    1.000
    N4478    N        0.89230    0.01484    0.21494    1.000
    Si4479   Si       0.87486    0.10907    0.18608    1.000
    N4480    N        0.76097    0.20623    0.21796    1.000
    N4481    N        0.84180    0.22093    0.21005    1.000
    Si4482   Si       0.84443    0.17642    0.20265    1.000
    N4483    N        0.80523    0.15952    0.19073    1.000
    Si4484   Si       0.77234    0.18760    0.17986    1.000
    N4485    N        0.88034    0.15162    0.19625    1.000
    Si4486   Si       0.98021    0.18945    0.19202    1.000
    N4487    N        0.95008    0.16081    0.17935    1.000
    Si4488   Si       0.92262    0.16244    0.21307    1.000
    N4489    N        0.98988    0.20945    0.23077    1.000
    N4490    N        0.92526    0.20103    0.23183    1.000
    N4491    N        0.83282    0.05094    0.26002    1.000
    Si4492   Si       0.79058    0.03714    0.27019    1.000
    N4493    N        0.76582    0.06334    0.24933    1.000
    Si4494   Si       0.84198    0.12781    0.25475    1.000
    N4495    N        0.81494    0.11147    0.28158    1.000
    Si4496   Si       0.95722    0.04470    0.26226    1.000
    N4497    N        0.92322    0.06996    0.27583    1.000
    Si4498   Si       0.91062    0.09989    0.24943    1.000
    N4499    N        0.88130    0.12330    0.27128    1.000
    N4500    N        0.93855    0.13118    0.23807    1.000
    Si4501   Si       0.83431    0.21411    0.25242    1.000
    Si4502   Si       0.76415    0.20499    0.26021    1.000
    N4503    N        0.76125    0.15966    0.26667    1.000
    N4504    N        0.83727    0.17002    0.24748    1.000
    N4505    N        0.79850    0.22851    0.27145    1.000
    N4506    N        0.86835    0.22700    0.27651    1.000
    Si4507   Si       0.95724    0.20335    0.26570    1.000
    Si4508   Si       0.90446    0.23321    0.25272    1.000
    N4509    N        0.93886    0.24180    0.27519    1.000
    N4510    N        0.80375    0.04300    0.31345    1.000
    N4511    N        0.75121    0.11463    0.32148    1.000
    Si4512   Si       0.82252    0.01758    0.34008    1.000
    Si4513   Si       0.83216    0.07290    0.29719    1.000
    N4514    N        0.86748    0.07479    0.32151    1.000
    Si4515   Si       0.91140    0.07788    0.31642    1.000
    N4516    N        0.91968    0.11888    0.32790    1.000
    Si4517   Si       0.98222    0.04942    0.33691    1.000
    N4518    N        0.93970    0.05790    0.34499    1.000
    N4519    N        0.99057    0.04866    0.29304    1.000
    Si4520   Si       0.78152    0.13371    0.29445    1.000
    Si4521   Si       0.78545    0.23725    0.31392    1.000
    N4522    N        0.83073    0.22977    0.33711    1.000
    N4523    N        0.79886    0.15608    0.32991    1.000
    Si4524   Si       0.83961    0.15402    0.34881    1.000
    N4525    N        0.86932    0.16983    0.32164    1.000
    Si4526   Si       0.90152    0.14817    0.30332    1.000
    Si4527   Si       0.86707    0.21410    0.31932    1.000
    N4528    N        0.93329    0.17775    0.29659    1.000
    N4529    N        0.97812    0.14762    0.33726    1.000
    Si4530   Si       0.96475    0.18750    0.32649    1.000
    N4531    N        0.83976    0.03958    0.37649    1.000
    Si4532   Si       0.76803    0.02122    0.39016    1.000
    N4533    N        0.76289    0.06499    0.38886    1.000
    N4534    N        0.85328    0.11737    0.36883    1.000
    N4535    N        0.78270    0.13368    0.39189    1.000
    Si4536   Si       0.86353    0.07405    0.36454    1.000
    Si4537   Si       0.93739    0.06444    0.38785    1.000
    N4538    N        0.95987    0.10171    0.39231    1.000
    N4539    N        0.89473    0.07941    0.39488    1.000
    Si4540   Si       0.88529    0.12406    0.39935    1.000
    Si4541   Si       0.94380    0.12925    0.36146    1.000
    Si4542   Si       0.80878    0.21817    0.37666    1.000
    N4543    N        0.83252    0.18078    0.38620    1.000
    Si4544   Si       0.74420    0.20745    0.38240    1.000
    N4545    N        0.82953    0.25197    0.39751    1.000
    Si4546   Si       0.76435    0.14113    0.35408    1.000
    N4547    N        0.77115    0.22596    0.35250    1.000
    N4548    N        0.91483    0.15203    0.38605    1.000
    Si4549   Si       0.98315    0.24203    0.37777    1.000
    N4550    N        0.95829    0.20827    0.36205    1.000
    Si4551   Si       0.93976    0.18498    0.39311    1.000
    Si4552   Si       0.91660    0.24644    0.38239    1.000
    N4553    N        0.89165    0.23404    0.34755    1.000
    N4554    N        0.79873    0.09216    0.44853    1.000
    N4555    N        0.84942    0.04734    0.44066    1.000
    Si4556   Si       0.80831    0.05017    0.45591    1.000
    N4557    N        0.79279    0.01808    0.43034    1.000
    Si4558   Si       0.77041    0.09983    0.41581    1.000
    Si4559   Si       0.83562    0.01508    0.41280    1.000
    N4560    N        0.87712    0.11610    0.44109    1.000
    Si4561   Si       0.88308    0.07203    0.43841    1.000
    Si4562   Si       0.94646    0.03451    0.45443    1.000
    N4563    N        0.91239    0.05910    0.46438    1.000
    N4564    N        0.95226    0.03048    0.41057    1.000
    Si4565   Si       0.98783    0.12742    0.41811    1.000
    Si4566   Si       0.77761    0.22791    0.44523    1.000
    N4567    N        0.81567    0.16118    0.45279    1.000
    N4568    N        0.81970    0.22541    0.45981    1.000
    Si4569   Si       0.80203    0.16605    0.41230    1.000
    N4570    N        0.77701    0.20166    0.40932    1.000
    Si4571   Si       0.84051    0.25757    0.43885    1.000
    Si4572   Si       0.90576    0.21573    0.45445    1.000
    N4573    N        0.91970    0.21629    0.41489    1.000
    N4574    N        0.88046    0.25263    0.45291    1.000
    N4575    N        0.97345    0.16842    0.41253    1.000
    N4576    N        0.80954    0.03872    0.49744    1.000
    Si4577   Si       0.81003    0.12455    0.47559    1.000
    Si4578   Si       0.77127    0.02082    0.51059    1.000
    Si4579   Si       0.84755    0.02649    0.51557    1.000
    N4580    N        0.77297    0.12694    0.49978    1.000
    N4581    N        0.74367    0.02900    0.47791    1.000
    N4582    N        0.84646    0.13290    0.50238    1.000
    Si4583   Si       0.90915    0.06808    0.50681    1.000
    N4584    N        0.91177    0.11459    0.50385    1.000
    Si4585   Si       0.96942    0.01606    0.51348    1.000
    N4586    N        0.98490    0.04505    0.47283    1.000
    N4587    N        0.87457    0.05723    0.52796    1.000
    Si4588   Si       0.84178    0.18949    0.47522    1.000
    N4589    N        0.76200    0.21832    0.48500    1.000
    Si4590   Si       0.79766    0.22427    0.50676    1.000
    N4591    N        0.82449    0.19280    0.51900    1.000
    N4592    N        0.93089    0.23710    0.48369    1.000
    N4593    N        0.88390    0.18097    0.46903    1.000
    Si4594   Si       0.88322    0.13617    0.47977    1.000
    N4595    N        0.97485    0.17759    0.50597    1.000
    Si4596   Si       0.96501    0.22165    0.50345    1.000
    N4597    N        0.76669    0.03293    0.55162    1.000
    Si4598   Si       0.80371    0.03452    0.57268    1.000
    N4599    N        0.82395    0.07336    0.57378    1.000
    Si4600   Si       0.86903    0.07212    0.57004    1.000
    Si4601   Si       0.97875    0.06543    0.54995    1.000
    N4602    N        0.97453    0.10807    0.54239    1.000
    N4603    N        0.89816    0.10605    0.57163    1.000
    Si4604   Si       0.93180    0.12013    0.54149    1.000
    N4605    N        0.94459    0.05087    0.52732    1.000
    N4606    N        0.80262    0.13849    0.55825    1.000
    Si4607   Si       0.76448    0.14449    0.53948    1.000
    Si4608   Si       0.76053    0.21791    0.57829    1.000
    N4609    N        0.75427    0.18811    0.54540    1.000
    Si4610   Si       0.83608    0.15660    0.53848    1.000
    N4611    N        0.86064    0.16195    0.57363    1.000
    N4612    N        0.92948    0.15989    0.55762    1.000
    Si4613   Si       0.96699    0.18133    0.55051    1.000
    Si4614   Si       0.93762    0.25087    0.57184    1.000
    N4615    N        0.96119    0.22396    0.54699    1.000
    N4616    N        0.83431    0.12245    0.62266    1.000
    N4617    N        0.76427    0.10279    0.60329    1.000
    Si4618   Si       0.80612    0.10983    0.58948    1.000
    N4619    N        0.78885    0.01223    0.60803    1.000
    Si4620   Si       0.89324    0.04443    0.63642    1.000
    N4621    N        0.87830    0.03692    0.59599    1.000
    Si4622   Si       0.96031    0.09149    0.61994    1.000
    N4623    N        0.92929    0.06497    0.63441    1.000
    N4624    N        0.98103    0.06234    0.59487    1.000
    N4625    N        0.94293    0.12966    0.61368    1.000
    N4626    N        0.81556    0.18556    0.62869    1.000
    Si4627   Si       0.81089    0.23023    0.62505    1.000
    Si4628   Si       0.84885    0.16411    0.61568    1.000
    N4629    N        0.75128    0.19755    0.61626    1.000
    N4630    N        0.85097    0.24322    0.63068    1.000
    N4631    N        0.79941    0.23531    0.58421    1.000
    Si4632   Si       0.90905    0.20892    0.63095    1.000
    N4633    N        0.90694    0.23689    0.59713    1.000
    Si4634   Si       0.96875    0.16245    0.61769    1.000
    Si4635   Si       0.90330    0.14425    0.59100    1.000
    N4636    N        0.88989    0.17125    0.62527    1.000
    N4637    N        0.95192    0.19980    0.63279    1.000
    Si4638   Si       0.83738    0.09436    0.65755    1.000
    Si4639   Si       0.79509    0.02616    0.64831    1.000
    N4640    N        0.80051    0.06974    0.64785    1.000
    N4641    N        0.82606    0.10674    0.69662    1.000
    Si4642   Si       0.76758    0.09753    0.64597    1.000
    N4643    N        0.76000    0.01246    0.66973    1.000
    N4644    N        0.87117    0.07026    0.66263    1.000
    N4645    N        0.98344    0.08917    0.65822    1.000
    Si4646   Si       0.95627    0.05779    0.66994    1.000
    N4647    N        0.97792    0.02098    0.65594    1.000
    N4648    N        0.95432    0.13395    0.69858    1.000
    N4649    N        0.90034    0.00578    0.65452    1.000
    N4650    N        0.92780    0.06408    0.70145    1.000
    N4651    N        0.83591    0.22121    0.70060    1.000
    Si4652   Si       0.79425    0.22919    0.69533    1.000
    N4653    N        0.77310    0.13598    0.66441    1.000
    Si4654   Si       0.85779    0.24564    0.67233    1.000
    N4655    N        0.77206    0.19406    0.68543    1.000
    N4656    N        0.79596    0.25348    0.65867    1.000
    Si4657   Si       0.77479    0.17552    0.64580    1.000
    N4658    N        0.89591    0.22322    0.67058    1.000
    Si4659   Si       0.97177    0.22543    0.66378    1.000
    N4660    N        0.79670    0.04422    0.71698    1.000
    N4661    N        0.76461    0.11788    0.73262    1.000
    Si4662   Si       0.75961    0.02287    0.71251    1.000
    Si4663   Si       0.79745    0.08968    0.72645    1.000
    Si4664   Si       0.85005    0.12502    0.72819    1.000
    Si4665   Si       0.82919    0.01716    0.70902    1.000
    N4666    N        0.86098    0.04142    0.72949    1.000
    Si4667   Si       0.93047    0.10551    0.71909    1.000
    N4668    N        0.88853    0.11011    0.71882    1.000
    Si4669   Si       0.88457    0.06825    0.70443    1.000
    N4670    N        0.94672    0.10228    0.75748    1.000
    Si4671   Si       0.85119    0.20397    0.73789    1.000
    N4672    N        0.83831    0.16383    0.74228    1.000
    N4673    N        0.76014    0.17660    0.74801    1.000
    N4674    N        0.78622    0.25712    0.72834    1.000
    Si4675   Si       0.75873    0.15524    0.70542    1.000
    Si4676   Si       0.80309    0.17758    0.76377    1.000
    N4677    N        0.95409    0.21149    0.70231    1.000
    Si4678   Si       0.96684    0.17325    0.71743    1.000
    N4679    N        0.94828    0.17179    0.75742    1.000
    N4680    N        0.89386    0.21084    0.74257    1.000
    Si4681   Si       0.91588    0.22828    0.70947    1.000
    N4682    N        0.80782    0.03625    0.78961    1.000
    Si4683   Si       0.82694    0.11927    0.79829    1.000
    Si4684   Si       0.84300    0.05547    0.76810    1.000
    N4685    N        0.74274    0.10484    0.79716    1.000
    N4686    N        0.82791    0.09699    0.76028    1.000
    Si4687   Si       0.98421    0.08085    0.77380    1.000
    N4688    N        0.87098    0.05506    0.80208    1.000
    N4689    N        0.86848    0.12088    0.81500    1.000
    N4690    N        0.97086    0.06670    0.81184    1.000
    N4691    N        0.92337    0.00776    0.80481    1.000
    N4692    N        0.93696    0.12917    0.81547    1.000
    Si4693   Si       0.88251    0.01526    0.81497    1.000
    Si4694   Si       0.75429    0.14039    0.77330    1.000
    N4695    N        0.79650    0.14969    0.79603    1.000
    N4696    N        0.82333    0.21696    0.76897    1.000
    Si4697   Si       0.80998    0.25840    0.76358    1.000
    N4698    N        0.94293    0.23724    0.78400    1.000
    N4699    N        0.90102    0.18613    0.81085    1.000
    Si4700   Si       0.95870    0.13824    0.78071    1.000
    N4701    N        0.88250    0.25266    0.81529    1.000
    Si4702   Si       0.92074    0.20056    0.77434    1.000
    Si4703   Si       0.98076    0.25222    0.76814    1.000
    N4704    N        0.81083    0.09308    0.82973    1.000
    N4705    N        0.75595    0.04570    0.83794    1.000
    Si4706   Si       0.82224    0.11142    0.86843    1.000
    N4707    N        0.81479    0.01588    0.84951    1.000
    Si4708   Si       0.79721    0.05207    0.82982    1.000
    N4709    N        0.85641    0.08490    0.87588    1.000
    Si4710   Si       0.87521    0.08237    0.83824    1.000
    N4711    N        0.88184    0.02107    0.85969    1.000
    N4712    N        0.95167    0.02206    0.86492    1.000
    N4713    N        0.91561    0.07506    0.85295    1.000
    Si4714   Si       0.95139    0.09435    0.83793    1.000
    N4715    N        0.96917    0.11573    0.87150    1.000
    Si4716   Si       0.96370    0.02367    0.82148    1.000
    Si4717   Si       0.91538    0.04024    0.87787    1.000
    N4718    N        0.75850    0.13872    0.85815    1.000
    N4719    N        0.82826    0.15305    0.85603    1.000
    Si4720   Si       0.78949    0.16323    0.83745    1.000
    N4721    N        0.77411    0.20265    0.84033    1.000
    Si4722   Si       0.77838    0.23329    0.87082    1.000
    N4723    N        0.86809    0.21009    0.87349    1.000
    N4724    N        0.90148    0.15011    0.87160    1.000
    Si4725   Si       0.96561    0.22934    0.87202    1.000
    Si4726   Si       0.89854    0.14805    0.82756    1.000
    N4727    N        0.92945    0.23622    0.85104    1.000
    Si4728   Si       0.89049    0.21765    0.83842    1.000
    N4729    N        0.79698    0.10908    0.90319    1.000
    N4730    N        0.83597    0.02877    0.91665    1.000
    Si4731   Si       0.75650    0.12335    0.89849    1.000
    Si4732   Si       0.74353    0.05957    0.93071    1.000
    N4733    N        0.74094    0.02166    0.90971    1.000
    Si4734   Si       0.86434    0.06227    0.91358    1.000
    N4735    N        0.90460    0.04749    0.91851    1.000
    N4736    N        0.75500    0.21504    0.90253    1.000
    Si4737   Si       0.84392    0.22007    0.90735    1.000
    N4738    N        0.84042    0.17557    0.91859    1.000
    N4739    N        0.81319    0.24612    0.89196    1.000
    N4740    N        0.74440    0.15198    0.92804    1.000
    Si4741   Si       0.86254    0.16659    0.88011    1.000
    N4742    N        0.94551    0.14720    0.93260    1.000
    N4743    N        0.95754    0.18745    0.88617    1.000
    Si4744   Si       0.94140    0.14572    0.88869    1.000
    Si4745   Si       0.95894    0.18827    0.93081    1.000
    N4746    N        0.97272    0.25533    0.90585    1.000
    Si4747   Si       0.94496    0.25531    0.93868    1.000
    Si4748   Si       0.81044    0.02886    0.95289    1.000
    N4749    N        0.78359    0.06389    0.94842    1.000
    N4750    N        0.85290    0.08872    0.94592    1.000
    Si4751   Si       0.80971    0.09860    0.94320    1.000
    N4752    N        0.82692    0.03971    0.99309    1.000
    Si4753   Si       0.87912    0.08443    0.97929    1.000
    N4754    N        0.91732    0.10582    0.98008    1.000
    N4755    N        0.96155    0.05318    0.96376    1.000
    Si4756   Si       0.92406    0.02988    0.95318    1.000
    N4757    N        0.89483    0.04516    0.98237    1.000
    Si4758   Si       0.95000    0.08117    0.99526    1.000
    N4759    N        0.80899    0.13423    0.97220    1.000
    N4760    N        0.79607    0.20380    0.96140    1.000
    Si4761   Si       0.82662    0.17111    0.95936    1.000
    Si4762   Si       0.78991    0.23746    0.99025    1.000
    Si4763   Si       0.76244    0.19027    0.93922    1.000
    Si4764   Si       0.88909    0.20774    0.96709    1.000
    Si4765   Si       0.94879    0.13774    0.97409    1.000
    N4766    N        0.92603    0.21491    0.94235    1.000
    N4767    N        0.86149    0.23205    0.94546    1.000
    N4768    N        0.86220    0.17739    0.98428    1.000
    N4769    N        0.84696    0.28516    0.04519    1.000
    Si4770   Si       0.85614    0.31453    0.01361    1.000
    Si4771   Si       0.81731    0.37769    0.00019    1.000
    N4772    N        0.74927    0.27608    0.05492    1.000
    Si4773   Si       0.74129    0.29384    0.01618    1.000
    N4774    N        0.76569    0.32294    0.99801    1.000
    N4775    N        0.88375    0.33382    0.04150    1.000
    N4776    N        0.97715    0.26832    0.04943    1.000
    Si4777   Si       0.87430    0.37531    0.04782    1.000
    Si4778   Si       0.98732    0.26587    0.00654    1.000
    Si4779   Si       0.98544    0.34424    0.00332    1.000
    N4780    N        0.85375    0.50024    0.05332    1.000
    N4781    N        0.83174    0.38395    0.04113    1.000
    Si4782   Si       0.78531    0.44360    0.00575    1.000
    N4783    N        0.77832    0.44325    0.05189    1.000
    N4784    N        0.82698    0.46234    0.00090    1.000
    Si4785   Si       0.82927    0.50425    0.01627    1.000
    N4786    N        0.78856    0.51142    0.02748    1.000
    Si4787   Si       0.92382    0.42727    0.00752    1.000
    N4788    N        0.90502    0.40352    0.03769    1.000
    N4789    N        0.95372    0.44428    0.03697    1.000
    Si4790   Si       0.75581    0.30264    0.08871    1.000
    N4791    N        0.79546    0.32255    0.09072    1.000
    Si4792   Si       0.82566    0.29033    0.08424    1.000
    N4793    N        0.86178    0.30312    0.10702    1.000
    Si4794   Si       0.79129    0.35741    0.11411    1.000
    Si4795   Si       0.88724    0.30387    0.07285    1.000
    N4796    N        0.92007    0.31981    0.09703    1.000
    Si4797   Si       0.91980    0.36183    0.10810    1.000
    N4798    N        0.88191    0.37799    0.09193    1.000
    N4799    N        0.95228    0.25846    0.11232    1.000
    N4800    N        0.90728    0.26671    0.05955    1.000
    N4801    N        0.78138    0.39324    0.08866    1.000
    Si4802   Si       0.80916    0.41489    0.06406    1.000
    Si4803   Si       0.83958    0.47636    0.08674    1.000
    N4804    N        0.79921    0.49490    0.09358    1.000
    N4805    N        0.83930    0.43391    0.08737    1.000
    Si4806   Si       0.77352    0.48687    0.05947    1.000
    Si4807   Si       0.74761    0.41980    0.08322    1.000
    Si4808   Si       0.94286    0.48112    0.06246    1.000
    Si4809   Si       0.93400    0.41736    0.06755    1.000
    N4810    N        0.91941    0.45596    0.08851    1.000
    N4811    N        0.97904    0.50275    0.07416    1.000
    N4812    N        0.95054    0.38256    0.08523    1.000
    N4813    N        0.75990    0.35005    0.14315    1.000
    N4814    N        0.75237    0.27710    0.12454    1.000
    N4815    N        0.84773    0.26577    0.16614    1.000
    N4816    N        0.82504    0.37819    0.13455    1.000
    Si4817   Si       0.86969    0.29786    0.14949    1.000
    N4818    N        0.91906    0.36891    0.15170    1.000
    N4819    N        0.91019    0.28637    0.16092    1.000
    N4820    N        0.96810    0.31885    0.14595    1.000
    Si4821   Si       0.93607    0.29494    0.12734    1.000
    N4822    N        0.75031    0.49652    0.14333    1.000
    Si4823   Si       0.85592    0.40394    0.11483    1.000
    N4824    N        0.92125    0.48939    0.15483    1.000
    Si4825   Si       0.89912    0.46583    0.12599    1.000
    N4826    N        0.86233    0.48862    0.12027    1.000
    N4827    N        0.88206    0.42698    0.14062    1.000
    Si4828   Si       0.89961    0.40238    0.17009    1.000
    Si4829   Si       0.76049    0.36620    0.18461    1.000
    N4830    N        0.80034    0.37224    0.19904    1.000
    Si4831   Si       0.85203    0.26531    0.20930    1.000
    Si4832   Si       0.83761    0.36818    0.17601    1.000
    N4833    N        0.74211    0.34062    0.21383    1.000
    N4834    N        0.85265    0.32873    0.17523    1.000
    Si4835   Si       0.92260    0.28774    0.20381    1.000
    N4836    N        0.93019    0.33093    0.20714    1.000
    N4837    N        0.96033    0.27376    0.22056    1.000
    N4838    N        0.89314    0.26493    0.22639    1.000
    Si4839   Si       0.95057    0.34758    0.17378    1.000
    Si4840   Si       0.74058    0.42620    0.22061    1.000
    N4841    N        0.75753    0.46556    0.21372    1.000
    N4842    N        0.73887    0.40441    0.18276    1.000
    Si4843   Si       0.86122    0.42858    0.22177    1.000
    N4844    N        0.81737    0.43300    0.22685    1.000
    Si4845   Si       0.85744    0.50706    0.21320    1.000
    N4846    N        0.97938    0.38008    0.17960    1.000
    N4847    N        0.92860    0.42716    0.19165    1.000
    N4848    N        0.86631    0.39235    0.19572    1.000
    N4849    N        0.98344    0.44080    0.22112    1.000
    Si4850   Si       0.96202    0.40611    0.20856    1.000
    N4851    N        0.93478    0.49071    0.22968    1.000
    Si4852   Si       0.91736    0.47053    0.19486    1.000
    N4853    N        0.87410    0.46850    0.20921    1.000
    Si4854   Si       0.79175    0.27055    0.26162    1.000
    N4855    N        0.75367    0.28458    0.24644    1.000
    N4856    N        0.82368    0.37670    0.26981    1.000
    N4857    N        0.82184    0.28091    0.23376    1.000
    N4858    N        0.76203    0.34507    0.28311    1.000
    Si4859   Si       0.86618    0.37602    0.27652    1.000
    N4860    N        0.89021    0.34592    0.25948    1.000
    N4861    N        0.95006    0.31722    0.27507    1.000
    Si4862   Si       0.93121    0.34492    0.24786    1.000
    Si4863   Si       0.96253    0.27692    0.26456    1.000
    Si4864   Si       0.79621    0.46845    0.23764    1.000
    N4865    N        0.76195    0.39970    0.24705    1.000
    N4866    N        0.78687    0.46723    0.27933    1.000
    Si4867   Si       0.80240    0.39307    0.23574    1.000
    N4868    N        0.99040    0.49582    0.27069    1.000
    N4869    N        0.88131    0.41398    0.25900    1.000
    Si4870   Si       0.96520    0.46732    0.25096    1.000
    Si4871   Si       0.96008    0.40546    0.27969    1.000
    N4872    N        0.95070    0.38400    0.24420    1.000
    N4873    N        0.94315    0.44453    0.28230    1.000
    N4874    N        0.78628    0.27994    0.30480    1.000
    Si4875   Si       0.76864    0.31614    0.31638    1.000
    N4876    N        0.79474    0.34824    0.33809    1.000
    Si4877   Si       0.79317    0.37162    0.29952    1.000
    Si4878   Si       0.97144    0.33984    0.30430    1.000
    N4879    N        0.94718    0.37654    0.30889    1.000
    Si4880   Si       0.91715    0.37673    0.34120    1.000
    N4881    N        0.98117    0.31607    0.33801    1.000
    N4882    N        0.84777    0.44674    0.30597    1.000
    N4883    N        0.78767    0.40699    0.32379    1.000
    Si4884   Si       0.80533    0.44578    0.31485    1.000
    N4885    N        0.74923    0.46541    0.33534    1.000
    Si4886   Si       0.76092    0.49397    0.29990    1.000
    Si4887   Si       0.86033    0.47252    0.33972    1.000
    N4888    N        0.96753    0.48900    0.33878    1.000
    N4889    N        0.90482    0.45214    0.33472    1.000
    Si4890   Si       0.93596    0.47446    0.31292    1.000
    N4891    N        0.88187    0.38839    0.31795    1.000
    Si4892   Si       0.88600    0.42866    0.30170    1.000
    Si4893   Si       0.81628    0.32223    0.36531    1.000
    N4894    N        0.78316    0.31791    0.39444    1.000
    N4895    N        0.84743    0.34363    0.38982    1.000
    N4896    N        0.74569    0.37317    0.38278    1.000
    Si4897   Si       0.74163    0.32953    0.38122    1.000
    Si4898   Si       0.85570    0.25903    0.36269    1.000
    N4899    N        0.84654    0.29747    0.34697    1.000
    Si4900   Si       0.87907    0.31856    0.37206    1.000
    Si4901   Si       0.95274    0.31520    0.36996    1.000
    N4902    N        0.95244    0.27224    0.37823    1.000
    N4903    N        0.91630    0.33790    0.35971    1.000
    N4904    N        0.88917    0.27937    0.38691    1.000
    N4905    N        0.96703    0.33662    0.40381    1.000
    Si4906   Si       0.94491    0.37344    0.40759    1.000
    Si4907   Si       0.78267    0.38665    0.36222    1.000
    Si4908   Si       0.77747    0.48776    0.36107    1.000
    N4909    N        0.81061    0.40472    0.38818    1.000
    Si4910   Si       0.83488    0.44119    0.39152    1.000
    N4911    N        0.81246    0.46129    0.35473    1.000
    N4912    N        0.76401    0.49480    0.40187    1.000
    N4913    N        0.87076    0.41298    0.39883    1.000
    N4914    N        0.93145    0.40330    0.37448    1.000
    N4915    N        0.86962    0.47129    0.38156    1.000
    Si4916   Si       0.90245    0.43837    0.37813    1.000
    N4917    N        0.93993    0.46302    0.39775    1.000
    Si4918   Si       0.96758    0.42968    0.38452    1.000
    Si4919   Si       0.94711    0.49976    0.37574    1.000
    Si4920   Si       0.78522    0.30566    0.43504    1.000
    N4921    N        0.82266    0.29614    0.45445    1.000
    N4922    N        0.76340    0.26715    0.43547    1.000
    N4923    N        0.76581    0.33394    0.46095    1.000
    N4924    N        0.90877    0.36707    0.43073    1.000
    Si4925   Si       0.84157    0.38030    0.40834    1.000
    N4926    N        0.84210    0.39545    0.45121    1.000
    N4927    N        0.77148    0.43448    0.44893    1.000
    N4928    N        0.82578    0.46709    0.42684    1.000
    Si4929   Si       0.78462    0.47268    0.43535    1.000
    Si4930   Si       0.85995    0.49539    0.41926    1.000
    N4931    N        0.97467    0.40595    0.42114    1.000
    Si4932   Si       0.88551    0.39952    0.44281    1.000
    Si4933   Si       0.93212    0.46526    0.44321    1.000
    N4934    N        0.89402    0.48760    0.44692    1.000
    N4935    N        0.91546    0.42771    0.45887    1.000
    Si4936   Si       0.75986    0.36157    0.49248    1.000
    Si4937   Si       0.82843    0.29629    0.49778    1.000
    N4938    N        0.80665    0.26558    0.51903    1.000
    N4939    N        0.82020    0.33290    0.52296    1.000
    N4940    N        0.87108    0.29388    0.50445    1.000
    Si4941   Si       0.97369    0.31641    0.48140    1.000
    Si4942   Si       0.90365    0.27362    0.48315    1.000
    N4943    N        0.90732    0.37666    0.50146    1.000
    N4944    N        0.93191    0.30873    0.47561    1.000
    N4945    N        0.96770    0.35730    0.47037    1.000
    N4946    N        0.98416    0.29912    0.52018    1.000
    Si4947   Si       0.92387    0.35216    0.47136    1.000
    N4948    N        0.81760    0.45001    0.50005    1.000
    Si4949   Si       0.81175    0.49346    0.49814    1.000
    N4950    N        0.78999    0.39222    0.49753    1.000
    N4951    N        0.78263    0.50012    0.46822    1.000
    Si4952   Si       0.80859    0.41949    0.46640    1.000
    Si4953   Si       0.91450    0.42180    0.50338    1.000
    Si4954   Si       0.88936    0.49515    0.48941    1.000
    N4955    N        0.96126    0.47690    0.47370    1.000
    N4956    N        0.88719    0.45558    0.50845    1.000
    Si4957   Si       0.78885    0.33442    0.55284    1.000
    N4958    N        0.85414    0.28092    0.57035    1.000
    N4959    N        0.78516    0.29877    0.57550    1.000
    Si4960   Si       0.81501    0.26881    0.56336    1.000
    Si4961   Si       0.83787    0.36949    0.54823    1.000
    N4962    N        0.75395    0.34058    0.53031    1.000
    N4963    N        0.80763    0.36333    0.58011    1.000
    N4964    N        0.92070    0.28611    0.54711    1.000
    Si4965   Si       0.88244    0.30525    0.54629    1.000
    Si4966   Si       0.96421    0.30649    0.55921    1.000
    N4967    N        0.87598    0.34942    0.55473    1.000
    N4968    N        0.94406    0.34618    0.56281    1.000
    Si4969   Si       0.91231    0.37081    0.54477    1.000
    N4970    N        0.76169    0.43956    0.54738    1.000
    Si4971   Si       0.75235    0.47028    0.57860    1.000
    N4972    N        0.83661    0.41268    0.54453    1.000
    N4973    N        0.84676    0.48183    0.56324    1.000
    Si4974   Si       0.85194    0.45113    0.53093    1.000
    Si4975   Si       0.79581    0.42325    0.52712    1.000
    N4976    N        0.92660    0.41326    0.54705    1.000
    Si4977   Si       0.80163    0.36365    0.62263    1.000
    N4978    N        0.75745    0.37408    0.62887    1.000
    Si4979   Si       0.74839    0.28812    0.59446    1.000
    N4980    N        0.75438    0.29645    0.63553    1.000
    N4981    N        0.82199    0.32987    0.64088    1.000
    Si4982   Si       0.97643    0.29350    0.63192    1.000
    N4983    N        0.88903    0.30433    0.62225    1.000
    Si4984   Si       0.95653    0.36270    0.60006    1.000
    N4985    N        0.96666    0.33525    0.63207    1.000
    Si4986   Si       0.87672    0.26706    0.60530    1.000
    N4987    N        0.96424    0.27701    0.59417    1.000
    N4988    N        0.78352    0.49528    0.59822    1.000
    N4989    N        0.86080    0.48527    0.63187    1.000
    Si4990   Si       0.87824    0.49233    0.59237    1.000
    Si4991   Si       0.95534    0.48386    0.62872    1.000
    N4992    N        0.92426    0.39022    0.61063    1.000
    N4993    N        0.90284    0.45902    0.59917    1.000
    Si4994   Si       0.88983    0.45461    0.64109    1.000
    N4995    N        0.96620    0.45205    0.60031    1.000
    Si4996   Si       0.93089    0.42925    0.58741    1.000
    Si4997   Si       0.79238    0.29756    0.65789    1.000
    N4998    N        0.85643    0.28931    0.68246    1.000
    N4999    N        0.78560    0.31523    0.69738    1.000
    Si5000   Si       0.86350    0.32116    0.65406    1.000
    N5001    N        0.77415    0.38250    0.70100    1.000
    N5002    N        0.88731    0.35471    0.67033    1.000
    Si5003   Si       0.97437    0.35769    0.66919    1.000
    N5004    N        0.95887    0.26757    0.66246    1.000
    N5005    N        0.96277    0.32849    0.69874    1.000
    Si5006   Si       0.95008    0.28560    0.70148    1.000
    N5007    N        0.73591    0.50711    0.64353    1.000
    N5008    N        0.76345    0.44121    0.66552    1.000
    Si5009   Si       0.84109    0.41285    0.67872    1.000
    Si5010   Si       0.77224    0.39883    0.66198    1.000
    Si5011   Si       0.78927    0.46624    0.68970    1.000
    N5012    N        0.80351    0.49696    0.66520    1.000
    N5013    N        0.81402    0.39801    0.64778    1.000
    N5014    N        0.92425    0.47899    0.65788    1.000
    Si5015   Si       0.91343    0.50753    0.68914    1.000
    N5016    N        0.87319    0.49508    0.69664    1.000
    N5017    N        0.88089    0.41820    0.66209    1.000
    N5018    N        0.94555    0.39117    0.67417    1.000
    Si5019   Si       0.90804    0.38683    0.65139    1.000
    Si5020   Si       0.75864    0.28959    0.72047    1.000
    Si5021   Si       0.80431    0.35333    0.71555    1.000
    N5022    N        0.80407    0.33977    0.75729    1.000
    N5023    N        0.84837    0.27603    0.75376    1.000
    N5024    N        0.73521    0.36685    0.75549    1.000
    N5025    N        0.87423    0.33224    0.73733    1.000
    Si5026   Si       0.87229    0.28994    0.72265    1.000
    N5027    N        0.97851    0.27465    0.72995    1.000
    Si5028   Si       0.88347    0.36538    0.71355    1.000
    N5029    N        0.91163    0.27260    0.71475    1.000
    Si5030   Si       0.98451    0.33503    0.73559    1.000
    N5031    N        0.84143    0.38216    0.71306    1.000
    N5032    N        0.76904    0.48869    0.72066    1.000
    Si5033   Si       0.75625    0.40022    0.73587    1.000
    Si5034   Si       0.84946    0.47393    0.72712    1.000
    Si5035   Si       0.83382    0.40999    0.74777    1.000
    N5036    N        0.79089    0.41449    0.75773    1.000
    N5037    N        0.85951    0.44504    0.75639    1.000
    Si5038   Si       0.73831    0.47697    0.74785    1.000
    N5039    N        0.82510    0.44590    0.70368    1.000
    N5040    N        0.91778    0.38328    0.73441    1.000
    Si5041   Si       0.97347    0.47831    0.70548    1.000
    N5042    N        0.94520    0.50814    0.71966    1.000
    N5043    N        0.96090    0.44342    0.72834    1.000
    Si5044   Si       0.95285    0.40211    0.71573    1.000
    N5045    N        0.80991    0.27655    0.80379    1.000
    Si5046   Si       0.76184    0.33661    0.77317    1.000
    Si5047   Si       0.85232    0.27931    0.79875    1.000
    Si5048   Si       0.84600    0.34361    0.76979    1.000
    N5049    N        0.76884    0.33412    0.81684    1.000
    N5050    N        0.86371    0.32100    0.80527    1.000
    N5051    N        0.74558    0.29871    0.76092    1.000
    Si5052   Si       0.96712    0.32029    0.80685    1.000
    N5053    N        0.95864    0.33976    0.76993    1.000
    Si5054   Si       0.93271    0.37455    0.77555    1.000
    Si5055   Si       0.92512    0.26102    0.81704    1.000
    N5056    N        0.91328    0.36914    0.81587    1.000
    N5057    N        0.98947    0.28481    0.79961    1.000
    N5058    N        0.84723    0.38547    0.78102    1.000
    N5059    N        0.74809    0.40661    0.81213    1.000
    Si5060   Si       0.77901    0.43171    0.79395    1.000
    N5061    N        0.75554    0.46939    0.78679    1.000
    N5062    N        0.86072    0.49273    0.80692    1.000
    N5063    N        0.81547    0.43911    0.81634    1.000
    Si5064   Si       0.84561    0.40777    0.81787    1.000
    N5065    N        0.95744    0.40904    0.78877    1.000
    N5066    N        0.92274    0.47420    0.77707    1.000
    Si5067   Si       0.88431    0.46037    0.78956    1.000
    Si5068   Si       0.95684    0.45014    0.77268    1.000
    N5069    N        0.81006    0.31521    0.86752    1.000
    Si5070   Si       0.78696    0.29759    0.83409    1.000
    N5071    N        0.76140    0.27002    0.85598    1.000
    Si5072   Si       0.74910    0.36831    0.83325    1.000
    N5073    N        0.77266    0.37886    0.86958    1.000
    Si5074   Si       0.81063    0.35735    0.87382    1.000
    Si5075   Si       0.89883    0.33104    0.83046    1.000
    N5076    N        0.89115    0.33523    0.87738    1.000
    N5077    N        0.93160    0.30279    0.82353    1.000
    N5078    N        0.84052    0.37946    0.84972    1.000
    Si5079   Si       0.82618    0.47834    0.83317    1.000
    N5080    N        0.81615    0.47123    0.87489    1.000
    Si5081   Si       0.75375    0.49424    0.82158    1.000
    N5082    N        0.74189    0.47333    0.85638    1.000
    N5083    N        0.88486    0.42979    0.82096    1.000
    Si5084   Si       0.98193    0.39672    0.82296    1.000
    Si5085   Si       0.91395    0.40437    0.84233    1.000
    N5086    N        0.95589    0.40288    0.85725    1.000
    Si5087   Si       0.81271    0.28869    0.90248    1.000
    N5088    N        0.83713    0.36324    0.91047    1.000
    N5089    N        0.85123    0.29297    0.92276    1.000
    N5090    N        0.78302    0.30410    0.93248    1.000
    Si5091   Si       0.74506    0.32495    0.92699    1.000
    Si5092   Si       0.86838    0.37325    0.88250    1.000
    Si5093   Si       0.88865    0.31495    0.91629    1.000
    N5094    N        0.94876    0.36797    0.92160    1.000
    N5095    N        0.91776    0.28914    0.93495    1.000
    Si5096   Si       0.77408    0.46644    0.88532    1.000
    Si5097   Si       0.74933    0.39161    0.90391    1.000
    N5098    N        0.76481    0.43099    0.90868    1.000
    Si5099   Si       0.84618    0.48098    0.90386    1.000
    N5100    N        0.76380    0.49233    0.91905    1.000
    N5101    N        0.85757    0.44887    0.93101    1.000
    N5102    N        0.98646    0.42210    0.92007    1.000
    Si5103   Si       0.97439    0.39030    0.89323    1.000
    N5104    N        0.88583    0.48070    0.88534    1.000
    N5105    N        0.92884    0.45185    0.93066    1.000
    Si5106   Si       0.96871    0.46240    0.91697    1.000
    Si5107   Si       0.89460    0.44368    0.90580    1.000
    N5108    N        0.89382    0.40772    0.88115    1.000
    N5109    N        0.95591    0.49514    0.88952    1.000
    Si5110   Si       0.79773    0.30869    0.97343    1.000
    Si5111   Si       0.84800    0.35971    0.95256    1.000
    N5112    N        0.81762    0.26988    0.98169    1.000
    N5113    N        0.82962    0.33767    0.98587    1.000
    Si5114   Si       0.85635    0.27065    0.95998    1.000
    N5115    N        0.75105    0.25981    0.98966    1.000
    N5116    N        0.75279    0.36464    0.93701    1.000
    Si5117   Si       0.92225    0.29691    0.98132    1.000
    Si5118   Si       0.92798    0.36150    0.95970    1.000
    N5119    N        0.95398    0.26780    0.97943    1.000
    N5120    N        0.94487    0.33339    0.98838    1.000
    N5121    N        0.88836    0.34549    0.94830    1.000
    N5122    N        0.88217    0.28612    0.99301    1.000
    Si5123   Si       0.74452    0.38667    0.97242    1.000
    Si5124   Si       0.75012    0.45595    0.94361    1.000
    N5125    N        0.84438    0.39823    0.97338    1.000
    Si5126   Si       0.85359    0.44207    0.97451    1.000
    N5127    N        0.76024    0.47144    0.98409    1.000
    N5128    N        0.78158    0.40112    0.99566    1.000
    Si5129   Si       0.97549    0.40333    0.95894    1.000
    N5130    N        0.89300    0.45330    0.98991    1.000
    N5131    N        0.95031    0.49946    0.98406    1.000
    Si5132   Si       0.91634    0.47751    0.96338    1.000
    N5133    N        0.93799    0.39955    0.97811    1.000
    N5134    N        0.81166    0.58547    0.01617    1.000
    Si5135   Si       0.79885    0.60242    0.05387    1.000
    Si5136   Si       0.85356    0.57542    0.01025    1.000
    N5137    N        0.86985    0.57056    0.04860    1.000
    N5138    N        0.97565    0.57033    0.04060    1.000
    Si5139   Si       0.94068    0.59261    0.02684    1.000
    N5140    N        0.94658    0.62715    0.00229    1.000
    N5141    N        0.91780    0.56237    0.00073    1.000
    Si5142   Si       0.83999    0.67010    0.04779    1.000
    Si5143   Si       0.78318    0.74504    0.02377    1.000
    N5144    N        0.77508    0.70322    0.02615    1.000
    N5145    N        0.83483    0.67397    0.00279    1.000
    Si5146   Si       0.76593    0.66852    0.05093    1.000
    N5147    N        0.80305    0.64504    0.05200    1.000
    Si5148   Si       0.87269    0.65293    0.99783    1.000
    N5149    N        0.88024    0.65316    0.04358    1.000
    N5150    N        0.89506    0.74263    0.01648    1.000
    N5151    N        0.93996    0.69531    0.01100    1.000
    Si5152   Si       0.97718    0.71312    0.02510    1.000
    N5153    N        0.81889    0.58989    0.08920    1.000
    Si5154   Si       0.86158    0.58734    0.08748    1.000
    N5155    N        0.76256    0.55913    0.11256    1.000
    N5156    N        0.75564    0.59685    0.05692    1.000
    N5157    N        0.95144    0.55619    0.10831    1.000
    N5158    N        0.87687    0.54941    0.10566    1.000
    Si5159   Si       0.88245    0.53086    0.06524    1.000
    Si5160   Si       0.95723    0.54128    0.06863    1.000
    N5161    N        0.93255    0.61040    0.06869    1.000
    N5162    N        0.87770    0.62467    0.10240    1.000
    Si5163   Si       0.95378    0.59940    0.10571    1.000
    N5164    N        0.92226    0.51926    0.05820    1.000
    N5165    N        0.76541    0.68104    0.09314    1.000
    Si5166   Si       0.76952    0.72305    0.09701    1.000
    N5167    N        0.84452    0.70496    0.07405    1.000
    N5168    N        0.78759    0.74961    0.06726    1.000
    Si5169   Si       0.83196    0.74504    0.06079    1.000
    N5170    N        0.92431    0.73560    0.09157    1.000
    N5171    N        0.98259    0.70423    0.06596    1.000
    Si5172   Si       0.90686    0.75695    0.05662    1.000
    N5173    N        0.92935    0.66913    0.10709    1.000
    Si5174   Si       0.90539    0.64403    0.07769    1.000
    Si5175   Si       0.95373    0.70456    0.09885    1.000
    N5176    N        0.77577    0.61785    0.13562    1.000
    N5177    N        0.81352    0.54030    0.13902    1.000
    N5178    N        0.83678    0.59892    0.15505    1.000
    Si5179   Si       0.80203    0.58223    0.12941    1.000
    Si5180   Si       0.85433    0.52866    0.13457    1.000
    Si5181   Si       0.77830    0.52148    0.12144    1.000
    N5182    N        0.93697    0.61167    0.14599    1.000
    Si5183   Si       0.94626    0.52662    0.14286    1.000
    N5184    N        0.98712    0.51408    0.14456    1.000
    Si5185   Si       0.85521    0.63414    0.14045    1.000
    N5186    N        0.80128    0.72738    0.12697    1.000
    Si5187   Si       0.78376    0.65924    0.12811    1.000
    N5188    N        0.82672    0.66662    0.13063    1.000
    N5189    N        0.76803    0.68069    0.16243    1.000
    Si5190   Si       0.79222    0.71863    0.16927    1.000
    Si5191   Si       0.84081    0.70773    0.11926    1.000
    Si5192   Si       0.85056    0.75276    0.17495    1.000
    N5193    N        0.88743    0.65109    0.16566    1.000
    N5194    N        0.98598    0.71354    0.12751    1.000
    Si5195   Si       0.96942    0.71569    0.16821    1.000
    Si5196   Si       0.92776    0.65484    0.14964    1.000
    N5197    N        0.86866    0.73595    0.13735    1.000
    Si5198   Si       0.90725    0.75185    0.12917    1.000
    N5199    N        0.93327    0.74039    0.16233    1.000
    N5200    N        0.82117    0.57960    0.21946    1.000
    Si5201   Si       0.85144    0.57532    0.18935    1.000
    Si5202   Si       0.77487    0.58670    0.21696    1.000
    N5203    N        0.74471    0.57883    0.18549    1.000
    N5204    N        0.86098    0.53445    0.17840    1.000
    N5205    N        0.81767    0.50708    0.23032    1.000
    N5206    N        0.77928    0.62771    0.23221    1.000
    N5207    N        0.89121    0.59146    0.20000    1.000
    N5208    N        0.96324    0.61127    0.20904    1.000
    Si5209   Si       0.93371    0.59010    0.18395    1.000
    N5210    N        0.95300    0.55156    0.17800    1.000
    N5211    N        0.83073    0.71478    0.18624    1.000
    Si5212   Si       0.83397    0.68790    0.21909    1.000
    N5213    N        0.84419    0.64790    0.21804    1.000
    N5214    N        0.76079    0.74491    0.18153    1.000
    N5215    N        0.95331    0.67546    0.17707    1.000
    N5216    N        0.98681    0.73434    0.20581    1.000
    Si5217   Si       0.92186    0.75828    0.19998    1.000
    Si5218   Si       0.88291    0.63587    0.20343    1.000
    Si5219   Si       0.95451    0.65336    0.21466    1.000
    N5220    N        0.92637    0.72515    0.22886    1.000
    Si5221   Si       0.81071    0.54642    0.24665    1.000
    N5222    N        0.76844    0.55837    0.24798    1.000
    Si5223   Si       0.82180    0.61961    0.24468    1.000
    N5224    N        0.82806    0.55934    0.28405    1.000
    N5225    N        0.81587    0.62320    0.28671    1.000
    Si5226   Si       0.89366    0.57443    0.24170    1.000
    N5227    N        0.87217    0.60715    0.26064    1.000
    N5228    N        0.93471    0.56266    0.25030    1.000
    Si5229   Si       0.92220    0.52159    0.25530    1.000
    N5230    N        0.88067    0.53284    0.24114    1.000
    Si5231   Si       0.97278    0.58209    0.24018    1.000
    Si5232   Si       0.81890    0.73392    0.25590    1.000
    Si5233   Si       0.76678    0.66718    0.24478    1.000
    N5234    N        0.79790    0.69706    0.24371    1.000
    N5235    N        0.85874    0.71499    0.24396    1.000
    N5236    N        0.75832    0.66743    0.28947    1.000
    N5237    N        0.91012    0.68098    0.28562    1.000
    N5238    N        0.97745    0.67672    0.24470    1.000
    Si5239   Si       0.96678    0.71790    0.24174    1.000
    N5240    N        0.97030    0.74553    0.27354    1.000
    Si5241   Si       0.89876    0.71261    0.25838    1.000
    Si5242   Si       0.90362    0.64049    0.27101    1.000
    N5243    N        0.91347    0.64874    0.22885    1.000
    Si5244   Si       0.82249    0.53956    0.32220    1.000
    N5245    N        0.78542    0.51733    0.32920    1.000
    Si5246   Si       0.85137    0.59868    0.29881    1.000
    N5247    N        0.74873    0.57606    0.31119    1.000
    Si5248   Si       0.77628    0.58121    0.34408    1.000
    N5249    N        0.85686    0.51382    0.32997    1.000
    N5250    N        0.81874    0.57459    0.34838    1.000
    N5251    N        0.76928    0.62542    0.34683    1.000
    N5252    N        0.91891    0.51047    0.29718    1.000
    Si5253   Si       0.97398    0.62195    0.30138    1.000
    Si5254   Si       0.89684    0.53400    0.32634    1.000
    Si5255   Si       0.90740    0.60977    0.33180    1.000
    N5256    N        0.88780    0.57366    0.31808    1.000
    N5257    N        0.93169    0.61906    0.29682    1.000
    N5258    N        0.98709    0.59736    0.33713    1.000
    Si5259   Si       0.78928    0.74996    0.32622    1.000
    N5260    N        0.82156    0.74222    0.29972    1.000
    Si5261   Si       0.78921    0.64704    0.31130    1.000
    N5262    N        0.76403    0.71584    0.33724    1.000
    N5263    N        0.81317    0.67159    0.33777    1.000
    Si5264   Si       0.85641    0.66737    0.34218    1.000
    Si5265   Si       0.86314    0.74494    0.31470    1.000
    Si5266   Si       0.97980    0.68566    0.34805    1.000
    N5267    N        0.87217    0.70655    0.33223    1.000
    N5268    N        0.98535    0.66317    0.30963    1.000
    Si5269   Si       0.91409    0.70707    0.31953    1.000
    N5270    N        0.87203    0.63341    0.32376    1.000
    N5271    N        0.90265    0.74055    0.29252    1.000
    Si5272   Si       0.84005    0.57333    0.38590    1.000
    N5273    N        0.76342    0.56709    0.38262    1.000
    N5274    N        0.85732    0.53504    0.40608    1.000
    Si5275   Si       0.74780    0.53479    0.40541    1.000
    N5276    N        0.87864    0.59006    0.38457    1.000
    N5277    N        0.91570    0.52966    0.36562    1.000
    Si5278   Si       0.97247    0.61680    0.37315    1.000
    N5279    N        0.93045    0.62510    0.36500    1.000
    Si5280   Si       0.89766    0.55144    0.39737    1.000
    Si5281   Si       0.89748    0.62938    0.39272    1.000
    N5282    N        0.97373    0.52085    0.40347    1.000
    N5283    N        0.98149    0.59178    0.40857    1.000
    Si5284   Si       0.74409    0.63645    0.38015    1.000
    N5285    N        0.74060    0.68097    0.38509    1.000
    N5286    N        0.81000    0.70630    0.39446    1.000
    Si5287   Si       0.78259    0.68935    0.36637    1.000
    Si5288   Si       0.80266    0.74856    0.40209    1.000
    Si5289   Si       0.85200    0.69968    0.40655    1.000
    N5290    N        0.86961    0.66406    0.38348    1.000
    Si5291   Si       0.91853    0.72132    0.38962    1.000
    N5292    N        0.94159    0.70663    0.35436    1.000
    Si5293   Si       0.97623    0.74815    0.36380    1.000
    N5294    N        0.87737    0.73335    0.39747    1.000
    Si5295   Si       0.84796    0.61519    0.44399    1.000
    N5296    N        0.75969    0.55748    0.44141    1.000
    Si5297   Si       0.77613    0.59067    0.41870    1.000
    N5298    N        0.81928    0.59856    0.41560    1.000
    N5299    N        0.75620    0.62771    0.42049    1.000
    N5300    N        0.86499    0.57916    0.46432    1.000
    N5301    N        0.92394    0.56434    0.42892    1.000
    Si5302   Si       0.96575    0.55500    0.43044    1.000
    Si5303   Si       0.90644    0.59175    0.45714    1.000
    N5304    N        0.89354    0.62938    0.43712    1.000
    N5305    N        0.74960    0.69356    0.45905    1.000
    N5306    N        0.76188    0.74782    0.41777    1.000
    Si5307   Si       0.74289    0.70957    0.41933    1.000
    Si5308   Si       0.74223    0.64883    0.45742    1.000
    N5309    N        0.82961    0.76121    0.43297    1.000
    Si5310   Si       0.97198    0.71113    0.43116    1.000
    N5311    N        0.93299    0.69480    0.42475    1.000
    N5312    N        0.86147    0.68752    0.44538    1.000
    N5313    N        0.96198    0.73938    0.46293    1.000
    Si5314   Si       0.90249    0.67133    0.44841    1.000
    Si5315   Si       0.84714    0.55684    0.49731    1.000
    N5316    N        0.80503    0.57043    0.50525    1.000
    Si5317   Si       0.79894    0.61430    0.50267    1.000
    N5318    N        0.75683    0.61899    0.48944    1.000
    Si5319   Si       0.75069    0.52956    0.47263    1.000
    N5320    N        0.84858    0.51430    0.49135    1.000
    N5321    N        0.73980    0.55021    0.50922    1.000
    N5322    N        0.92140    0.59826    0.49698    1.000
    N5323    N        0.91931    0.52291    0.50606    1.000
    Si5324   Si       0.96160    0.51358    0.50015    1.000
    N5325    N        0.97631    0.54509    0.47203    1.000
    Si5326   Si       0.91638    0.56358    0.52673    1.000
    N5327    N        0.80804    0.71335    0.48250    1.000
    Si5328   Si       0.83478    0.67900    0.47925    1.000
    Si5329   Si       0.76535    0.72018    0.49052    1.000
    N5330    N        0.85601    0.67428    0.51596    1.000
    Si5331   Si       0.81674    0.75489    0.47263    1.000
    N5332    N        0.82435    0.63795    0.47317    1.000
    N5333    N        0.90837    0.73464    0.51254    1.000
    Si5334   Si       0.94182    0.71373    0.49357    1.000
    N5335    N        0.92105    0.67370    0.48873    1.000
    Si5336   Si       0.93188    0.63633    0.51373    1.000
    Si5337   Si       0.89401    0.69080    0.52465    1.000
    N5338    N        0.97125    0.70025    0.52429    1.000
    N5339    N        0.76055    0.57537    0.56816    1.000
    Si5340   Si       0.77717    0.55296    0.53252    1.000
    N5341    N        0.79329    0.51100    0.53274    1.000
    N5342    N        0.82078    0.55021    0.57693    1.000
    N5343    N        0.81592    0.62589    0.54051    1.000
    Si5344   Si       0.81276    0.50824    0.57055    1.000
    Si5345   Si       0.86194    0.56530    0.57161    1.000
    N5346    N        0.86526    0.60790    0.58231    1.000
    N5347    N        0.94067    0.57129    0.56184    1.000
    Si5348   Si       0.97148    0.60141    0.56819    1.000
    N5349    N        0.96839    0.63053    0.53547    1.000
    N5350    N        0.87302    0.56504    0.53124    1.000
    Si5351   Si       0.98394    0.53354    0.57668    1.000
    N5352    N        0.98547    0.51311    0.53641    1.000
    N5353    N        0.75633    0.72572    0.53234    1.000
    Si5354   Si       0.78172    0.75066    0.55844    1.000
    N5355    N        0.81595    0.72496    0.56091    1.000
    Si5356   Si       0.80186    0.64670    0.57631    1.000
    N5357    N        0.76498    0.66501    0.57040    1.000
    Si5358   Si       0.84918    0.70700    0.58013    1.000
    Si5359   Si       0.85722    0.64139    0.54871    1.000
    N5360    N        0.84062    0.66548    0.58407    1.000
    Si5361   Si       0.92016    0.67301    0.57955    1.000
    Si5362   Si       0.90493    0.74550    0.55575    1.000
    Si5363   Si       0.97292    0.73300    0.55322    1.000
    N5364    N        0.89207    0.70616    0.56449    1.000
    N5365    N        0.94042    0.74902    0.57796    1.000
    N5366    N        0.90321    0.64999    0.54556    1.000
    N5367    N        0.80170    0.61717    0.61038    1.000
    Si5368   Si       0.79337    0.57705    0.59737    1.000
    N5369    N        0.78835    0.55869    0.63699    1.000
    Si5370   Si       0.77728    0.51647    0.63517    1.000
    Si5371   Si       0.86073    0.63593    0.61441    1.000
    N5372    N        0.91302    0.58316    0.62971    1.000
    N5373    N        0.95531    0.52438    0.60868    1.000
    Si5374   Si       0.92459    0.55425    0.59969    1.000
    N5375    N        0.95704    0.62602    0.60231    1.000
    Si5376   Si       0.92451    0.62328    0.63054    1.000
    N5377    N        0.88844    0.53477    0.58669    1.000
    N5378    N        0.85438    0.72964    0.61708    1.000
    Si5379   Si       0.73884    0.74623    0.61746    1.000
    N5380    N        0.98419    0.75656    0.63198    1.000
    N5381    N        0.95681    0.69144    0.59818    1.000
    Si5382   Si       0.94975    0.73150    0.61688    1.000
    Si5383   Si       0.98381    0.66047    0.61196    1.000
    N5384    N        0.89900    0.65830    0.61606    1.000
    Si5385   Si       0.81185    0.56837    0.67012    1.000
    N5386    N        0.81010    0.61198    0.68386    1.000
    N5387    N        0.85039    0.54993    0.65990    1.000
    Si5388   Si       0.85090    0.62439    0.69601    1.000
    N5389    N        0.86661    0.61975    0.65497    1.000
    Si5390   Si       0.84501    0.50741    0.66482    1.000
    Si5391   Si       0.88506    0.57631    0.66604    1.000
    N5392    N        0.91967    0.55048    0.68349    1.000
    N5393    N        0.97541    0.59439    0.68190    1.000
    Si5394   Si       0.79516    0.63570    0.64909    1.000
    N5395    N        0.80494    0.67816    0.64710    1.000
    N5396    N        0.75492    0.72779    0.65357    1.000
    N5397    N        0.82259    0.74093    0.67604    1.000
    Si5398   Si       0.76299    0.68659    0.65586    1.000
    Si5399   Si       0.83567    0.70771    0.65246    1.000
    N5400    N        0.75206    0.64589    0.64659    1.000
    N5401    N        0.74646    0.68223    0.69764    1.000
    N5402    N        0.93237    0.64775    0.66733    1.000
    N5403    N        0.92747    0.71805    0.65047    1.000
    Si5404   Si       0.90693    0.68038    0.65233    1.000
    N5405    N        0.86788    0.68679    0.67157    1.000
    Si5406   Si       0.92691    0.73261    0.69183    1.000
    Si5407   Si       0.96989    0.63628    0.68300    1.000
    Si5408   Si       0.79194    0.52316    0.73417    1.000
    Si5409   Si       0.78228    0.59812    0.71673    1.000
    N5410    N        0.79332    0.55708    0.70735    1.000
    N5411    N        0.79216    0.62172    0.75007    1.000
    N5412    N        0.82813    0.50452    0.74859    1.000
    N5413    N        0.74083    0.60801    0.70759    1.000
    N5414    N        0.87575    0.58903    0.70963    1.000
    N5415    N        0.93928    0.57872    0.74441    1.000
    Si5416   Si       0.89606    0.57707    0.74598    1.000
    Si5417   Si       0.95647    0.56246    0.70610    1.000
    N5418    N        0.85576    0.72415    0.73230    1.000
    N5419    N        0.76270    0.73931    0.72847    1.000
    N5420    N        0.85958    0.65279    0.72840    1.000
    N5421    N        0.96785    0.74222    0.70181    1.000
    Si5422   Si       0.97962    0.73998    0.74452    1.000
    N5423    N        0.91543    0.69956    0.71556    1.000
    N5424    N        0.97423    0.65613    0.72115    1.000
    Si5425   Si       0.94443    0.67939    0.74185    1.000
    Si5426   Si       0.87399    0.69018    0.71409    1.000
    N5427    N        0.83812    0.55720    0.79726    1.000
    Si5428   Si       0.79626    0.54683    0.80373    1.000
    Si5429   Si       0.85127    0.59707    0.80863    1.000
    Si5430   Si       0.85552    0.52302    0.77687    1.000
    N5431    N        0.77073    0.54233    0.76828    1.000
    N5432    N        0.82400    0.62991    0.80860    1.000
    N5433    N        0.95342    0.53412    0.78932    1.000
    Si5434   Si       0.95676    0.57689    0.78485    1.000
    N5435    N        0.87858    0.60668    0.77579    1.000
    N5436    N        0.93424    0.59826    0.81820    1.000
    Si5437   Si       0.92869    0.51383    0.76110    1.000
    N5438    N        0.89148    0.53600    0.75876    1.000
    N5439    N        0.84543    0.75095    0.79368    1.000
    Si5440   Si       0.79660    0.65159    0.78052    1.000
    Si5441   Si       0.83746    0.71532    0.77148    1.000
    N5442    N        0.80018    0.69331    0.76640    1.000
    Si5443   Si       0.76341    0.71810    0.76862    1.000
    N5444    N        0.77271    0.75145    0.79470    1.000
    N5445    N        0.76310    0.64502    0.81171    1.000
    Si5446   Si       0.87831    0.64863    0.76724    1.000
    N5447    N        0.97838    0.65285    0.80629    1.000
    N5448    N        0.86804    0.68565    0.78953    1.000
    N5449    N        0.92238    0.65441    0.76782    1.000
    N5450    N        0.96613    0.70674    0.76689    1.000
    Si5451   Si       0.93625    0.64073    0.80443    1.000
    Si5452   Si       0.78989    0.61984    0.83508    1.000
    Si5453   Si       0.75577    0.55524    0.85791    1.000
    N5454    N        0.77899    0.57846    0.83006    1.000
    N5455    N        0.80566    0.61975    0.87570    1.000
    N5456    N        0.79511    0.50801    0.82437    1.000
    N5457    N        0.87039    0.60183    0.84825    1.000
    Si5458   Si       0.91162    0.58777    0.85262    1.000
    Si5459   Si       0.84686    0.63419    0.87230    1.000
    N5460    N        0.84994    0.67522    0.85870    1.000
    N5461    N        0.83624    0.74836    0.86359    1.000
    N5462    N        0.89673    0.72641    0.83992    1.000
    Si5463   Si       0.86527    0.75494    0.83107    1.000
    Si5464   Si       0.92828    0.74556    0.86253    1.000
    N5465    N        0.91572    0.66203    0.83778    1.000
    Si5466   Si       0.88149    0.68685    0.83069    1.000
    Si5467   Si       0.78777    0.59483    0.90809    1.000
    N5468    N        0.78034    0.55426    0.89375    1.000
    Si5469   Si       0.79116    0.52533    0.92593    1.000
    N5470    N        0.74855    0.60995    0.91946    1.000
    N5471    N        0.83315    0.51553    0.92556    1.000
    Si5472   Si       0.91492    0.57559    0.91159    1.000
    N5473    N        0.93015    0.61027    0.88720    1.000
    Si5474   Si       0.97594    0.61956    0.89454    1.000
    N5475    N        0.87728    0.57096    0.93159    1.000
    N5476    N        0.94787    0.55980    0.93462    1.000
    Si5477   Si       0.91448    0.50951    0.89547    1.000
    N5478    N        0.91137    0.54979    0.87650    1.000
    N5479    N        0.84641    0.70659    0.91730    1.000
    N5480    N        0.86200    0.63731    0.91501    1.000
    N5481    N        0.78426    0.70827    0.88288    1.000
    Si5482   Si       0.82648    0.70888    0.87872    1.000
    Si5483   Si       0.74148    0.71122    0.88400    1.000
    Si5484   Si       0.92823    0.65263    0.87816    1.000
    N5485    N        0.97178    0.65813    0.87797    1.000
    N5486    N        0.91107    0.68305    0.90391    1.000
    N5487    N        0.96163    0.72609    0.88762    1.000
    Si5488   Si       0.87639    0.67638    0.92730    1.000
    Si5489   Si       0.94248    0.70473    0.92445    1.000
    N5490    N        0.78341    0.53821    0.96741    1.000
    Si5491   Si       0.78861    0.57895    0.98020    1.000
    N5492    N        0.74744    0.59486    0.98613    1.000
    Si5493   Si       0.85324    0.60538    0.94567    1.000
    N5494    N        0.81125    0.59444    0.94503    1.000
    N5495    N        0.84925    0.53564    0.99088    1.000
    Si5496   Si       0.76079    0.51316    0.99332    1.000
    Si5497   Si       0.86398    0.53271    0.94965    1.000
    N5498    N        0.86453    0.61126    0.98699    1.000
    Si5499   Si       0.93204    0.53874    0.96916    1.000
    N5500    N        0.90272    0.51297    0.94398    1.000
    Si5501   Si       0.74510    0.63107    0.95902    1.000
    Si5502   Si       0.74089    0.70020    0.95262    1.000
    N5503    N        0.76880    0.66671    0.96551    1.000
    N5504    N        0.79732    0.72933    0.96825    1.000
    Si5505   Si       0.79642    0.69107    0.98994    1.000
    Si5506   Si       0.83055    0.73941    0.94266    1.000
    N5507    N        0.74124    0.74309    0.93522    1.000
    N5508    N        0.88972    0.67911    0.96822    1.000
    N5509    N        0.92918    0.73521    0.95421    1.000
    Si5510   Si       0.96140    0.66447    0.98821    1.000
    Si5511   Si       0.90950    0.71426    0.98739    1.000
    N5512    N        0.96172    0.67633    0.94744    1.000
    Si5513   Si       0.78454    0.85647    0.02283    1.000
    Si5514   Si       0.85278    0.83753    0.03321    1.000
    N5515    N        0.81147    0.83515    0.04666    1.000
    N5516    N        0.74689    0.76515    0.01277    1.000
    N5517    N        0.74533    0.83696    0.02279    1.000
    Si5518   Si       0.86435    0.76882    0.00097    1.000
    N5519    N        0.82711    0.75529    0.01935    1.000
    N5520    N        0.86540    0.87434    0.01284    1.000
    N5521    N        0.86893    0.81214    0.00216    1.000
    N5522    N        0.97494    0.83031    0.01878    1.000
    N5523    N        0.93261    0.78886    0.04826    1.000
    Si5524   Si       0.78632    0.93024    0.01310    1.000
    N5525    N        0.77452    0.96925    0.02841    1.000
    N5526    N        0.77625    0.89694    0.03781    1.000
    N5527    N        0.82806    0.92521    0.99810    1.000
    Si5528   Si       0.97605    0.98502    0.03918    1.000
    N5529    N        0.91153    0.89706    0.05559    1.000
    Si5530   Si       0.90079    0.90126    0.01305    1.000
    N5531    N        0.93849    0.99852    0.02342    1.000
    N5532    N        0.92913    0.93650    0.01357    1.000
    Si5533   Si       0.94612    0.92383    0.05300    1.000
    Si5534   Si       0.79763    0.83111    0.08836    1.000
    N5535    N        0.77772    0.86778    0.09737    1.000
    N5536    N        0.83299    0.81594    0.10808    1.000
    N5537    N        0.86698    0.76721    0.07199    1.000
    N5538    N        0.88138    0.83420    0.06551    1.000
    Si5539   Si       0.87165    0.80505    0.09396    1.000
    N5540    N        0.94971    0.84489    0.09060    1.000
    Si5541   Si       0.90817    0.86371    0.08051    1.000
    Si5542   Si       0.98040    0.87749    0.09396    1.000
    Si5543   Si       0.96217    0.81702    0.05896    1.000
    Si5544   Si       0.75562    0.89756    0.07560    1.000
    Si5545   Si       0.75602    0.97345    0.06788    1.000
    N5546    N        0.85485    0.99545    0.09992    1.000
    N5547    N        0.76221    0.93619    0.09156    1.000
    N5548    N        0.76506    0.00471    0.09522    1.000
    N5549    N        0.96135    0.95927    0.07413    1.000
    N5550    N        0.97929    0.89680    0.05448    1.000
    Si5551   Si       0.80496    0.80491    0.13999    1.000
    Si5552   Si       0.76497    0.86587    0.14003    1.000
    N5553    N        0.79813    0.84546    0.15561    1.000
    N5554    N        0.77189    0.80352    0.10928    1.000
    N5555    N        0.81610    0.77790    0.17078    1.000
    N5556    N        0.90451    0.79739    0.12261    1.000
    Si5557   Si       0.92850    0.83283    0.12900    1.000
    N5558    N        0.94968    0.85257    0.16328    1.000
    N5559    N        0.89912    0.86665    0.12077    1.000
    Si5560   Si       0.76845    0.94603    0.13295    1.000
    N5561    N        0.80524    0.96495    0.14275    1.000
    N5562    N        0.76540    0.90806    0.15493    1.000
    Si5563   Si       0.84723    0.96545    0.13009    1.000
    N5564    N        0.85861    0.92623    0.11898    1.000
    Si5565   Si       0.94895    0.89552    0.16253    1.000
    N5566    N        0.93737    0.97819    0.13919    1.000
    N5567    N        0.87046    0.97360    0.16498    1.000
    Si5568   Si       0.87809    0.89768    0.14283    1.000
    N5569    N        0.96726    0.90813    0.12410    1.000
    Si5570   Si       0.91380    0.95874    0.17038    1.000
    Si5571   Si       0.96459    0.95336    0.11503    1.000
    N5572    N        0.75456    0.81060    0.20051    1.000
    N5573    N        0.83365    0.83137    0.21632    1.000
    Si5574   Si       0.82125    0.85994    0.19002    1.000
    Si5575   Si       0.78283    0.77646    0.19991    1.000
    Si5576   Si       0.87278    0.81138    0.21940    1.000
    Si5577   Si       0.93979    0.83252    0.20034    1.000
    N5578    N        0.95108    0.79135    0.20197    1.000
    N5579    N        0.88038    0.77520    0.19629    1.000
    N5580    N        0.89937    0.84560    0.21250    1.000
    N5581    N        0.85381    0.88292    0.17614    1.000
    N5582    N        0.79686    0.88649    0.21285    1.000
    Si5583   Si       0.85590    0.00158    0.19611    1.000
    Si5584   Si       0.74868    0.98138    0.19212    1.000
    N5585    N        0.77650    0.95487    0.20834    1.000
    N5586    N        0.83905    0.97182    0.22271    1.000
    Si5587   Si       0.77067    0.91494    0.19686    1.000
    N5588    N        0.92835    0.96165    0.21132    1.000
    Si5589   Si       0.88710    0.88853    0.20366    1.000
    N5590    N        0.97551    0.91812    0.18924    1.000
    Si5591   Si       0.96313    0.93837    0.22752    1.000
    N5592    N        0.91043    0.91259    0.17105    1.000
    N5593    N        0.78134    0.83389    0.26125    1.000
    Si5594   Si       0.81696    0.80951    0.24972    1.000
    N5595    N        0.80308    0.76926    0.23807    1.000
    N5596    N        0.85868    0.79628    0.26030    1.000
    Si5597   Si       0.77412    0.86923    0.28536    1.000
    Si5598   Si       0.74331    0.82515    0.23921    1.000
    Si5599   Si       0.95259    0.84072    0.27501    1.000
    N5600    N        0.92545    0.80658    0.28274    1.000
    N5601    N        0.96335    0.84642    0.23333    1.000
    N5602    N        0.92946    0.87586    0.28376    1.000
    N5603    N        0.77583    0.99902    0.26045    1.000
    N5604    N        0.82091    0.94203    0.27258    1.000
    N5605    N        0.75336    0.90488    0.27170    1.000
    Si5606   Si       0.80042    0.96631    0.24200    1.000
    Si5607   Si       0.85800    0.94322    0.25145    1.000
    Si5608   Si       0.88697    0.88513    0.27983    1.000
    N5609    N        0.87501    0.90350    0.24148    1.000
    N5610    N        0.88599    0.96925    0.26873    1.000
    N5611    N        0.94349    0.00395    0.26806    1.000
    N5612    N        0.94831    0.93905    0.26934    1.000
    Si5613   Si       0.91240    0.98841    0.24167    1.000
    Si5614   Si       0.83909    0.86116    0.32814    1.000
    N5615    N        0.76304    0.78122    0.31274    1.000
    Si5616   Si       0.77004    0.81688    0.33617    1.000
    N5617    N        0.74869    0.84858    0.31386    1.000
    N5618    N        0.81198    0.82766    0.34131    1.000
    N5619    N        0.80871    0.88355    0.30765    1.000
    N5620    N        0.86801    0.78678    0.32724    1.000
    N5621    N        0.86733    0.85080    0.29725    1.000
    N5622    N        0.94950    0.77071    0.33648    1.000
    Si5623   Si       0.88238    0.81032    0.29439    1.000
    Si5624   Si       0.93867    0.76705    0.29413    1.000
    N5625    N        0.77181    0.94150    0.32761    1.000
    Si5626   Si       0.80933    0.92471    0.30851    1.000
    N5627    N        0.85663    0.99361    0.32834    1.000
    Si5628   Si       0.88632    0.96302    0.31121    1.000
    Si5629   Si       0.95271    0.90817    0.30054    1.000
    N5630    N        0.92839    0.96847    0.32465    1.000
    N5631    N        0.95117    0.90654    0.34364    1.000
    Si5632   Si       0.95794    0.97430    0.29358    1.000
    N5633    N        0.87943    0.91806    0.31116    1.000
    Si5634   Si       0.83905    0.79747    0.35689    1.000
    N5635    N        0.75167    0.87789    0.37197    1.000
    Si5636   Si       0.75022    0.84334    0.40315    1.000
    N5637    N        0.80899    0.76454    0.36222    1.000
    N5638    N        0.74385    0.81150    0.37003    1.000
    N5639    N        0.86610    0.87232    0.35943    1.000
    N5640    N        0.86704    0.80540    0.39024    1.000
    Si5641   Si       0.88869    0.84335    0.38298    1.000
    Si5642   Si       0.95873    0.87223    0.36860    1.000
    N5643    N        0.92937    0.83838    0.37099    1.000
    Si5644   Si       0.94681    0.79708    0.37295    1.000
    N5645    N        0.93952    0.76231    0.39866    1.000
    Si5646   Si       0.79591    0.95512    0.36169    1.000
    N5647    N        0.79039    0.99815    0.36278    1.000
    N5648    N        0.78922    0.93866    0.40291    1.000
    N5649    N        0.82946    0.93298    0.34794    1.000
    Si5650   Si       0.75764    0.90861    0.40360    1.000
    Si5651   Si       0.93769    0.94612    0.36068    1.000
    Si5652   Si       0.98094    0.99998    0.39701    1.000
    Si5653   Si       0.86810    0.91424    0.35437    1.000
    N5654    N        0.89603    0.93913    0.37483    1.000
    N5655    N        0.96697    0.95796    0.38954    1.000
    N5656    N        0.77018    0.81512    0.43011    1.000
    Si5657   Si       0.79208    0.84542    0.45392    1.000
    Si5658   Si       0.75084    0.77958    0.44484    1.000
    N5659    N        0.83341    0.84955    0.44682    1.000
    N5660    N        0.76819    0.87701    0.43298    1.000
    Si5661   Si       0.86303    0.87976    0.44206    1.000
    Si5662   Si       0.86864    0.77042    0.41811    1.000
    N5663    N        0.94984    0.81893    0.44440    1.000
    Si5664   Si       0.93674    0.86024    0.43503    1.000
    Si5665   Si       0.93974    0.77380    0.44116    1.000
    N5666    N        0.89627    0.86146    0.42119    1.000
    N5667    N        0.89781    0.76993    0.45041    1.000
    N5668    N        0.84645    0.97532    0.42093    1.000
    N5669    N        0.85250    0.91360    0.41948    1.000
    Si5670   Si       0.82176    0.94075    0.43104    1.000
    Si5671   Si       0.75538    0.99929    0.44732    1.000
    N5672    N        0.74452    0.96052    0.46408    1.000
    N5673    N        0.91345    0.95634    0.43675    1.000
    Si5674   Si       0.98185    0.92609    0.41575    1.000
    Si5675   Si       0.88077    0.94786    0.41375    1.000
    N5676    N        0.97688    0.93583    0.45817    1.000
    N5677    N        0.95668    0.88939    0.40898    1.000
    N5678    N        0.78944    0.83619    0.49794    1.000
    Si5679   Si       0.77446    0.79820    0.51196    1.000
    N5680    N        0.84469    0.77450    0.49938    1.000
    N5681    N        0.77282    0.76494    0.47946    1.000
    Si5682   Si       0.77827    0.87062    0.52268    1.000
    N5683    N        0.97492    0.83567    0.51500    1.000
    Si5684   Si       0.88845    0.76938    0.49189    1.000
    N5685    N        0.90067    0.80756    0.50710    1.000
    Si5686   Si       0.98277    0.82791    0.47313    1.000
    N5687    N        0.93871    0.88231    0.47289    1.000
    Si5688   Si       0.83573    0.91358    0.50410    1.000
    Si5689   Si       0.77331    0.94259    0.49083    1.000
    N5690    N        0.75804    0.90441    0.50491    1.000
    N5691    N        0.78300    0.97843    0.51507    1.000
    N5692    N        0.81077    0.93194    0.47187    1.000
    N5693    N        0.91713    0.94115    0.50405    1.000
    N5694    N        0.86985    0.89534    0.48321    1.000
    Si5695   Si       0.93948    0.95723    0.46973    1.000
    Si5696   Si       0.97753    0.89858    0.48092    1.000
    Si5697   Si       0.88648    0.96802    0.51709    1.000
    N5698    N        0.87128    0.99838    0.49312    1.000
    N5699    N        0.94574    0.99903    0.48155    1.000
    Si5700   Si       0.90696    0.89739    0.49915    1.000
    Si5701   Si       0.83582    0.86743    0.56639    1.000
    N5702    N        0.80023    0.79012    0.54679    1.000
    Si5703   Si       0.84359    0.79339    0.54049    1.000
    N5704    N        0.74625    0.86112    0.55122    1.000
    N5705    N        0.85812    0.83395    0.55148    1.000
    N5706    N        0.80290    0.84900    0.58871    1.000
    N5707    N        0.87154    0.77143    0.56562    1.000
    N5708    N        0.93013    0.81498    0.56518    1.000
    Si5709   Si       0.89982    0.83393    0.53989    1.000
    N5710    N        0.97706    0.86970    0.57222    1.000
    N5711    N        0.91317    0.87571    0.53503    1.000
    Si5712   Si       0.96619    0.80311    0.54458    1.000
    N5713    N        0.97367    0.76626    0.52376    1.000
    N5714    N        0.81672    0.88727    0.53368    1.000
    N5715    N        0.83294    0.00642    0.55411    1.000
    Si5716   Si       0.81512    0.96790    0.54337    1.000
    N5717    N        0.79793    0.94944    0.57782    1.000
    N5718    N        0.84791    0.94704    0.52744    1.000
    Si5719   Si       0.93602    0.88267    0.56965    1.000
    N5720    N        0.96981    0.98064    0.54389    1.000
    N5721    N        0.93853    0.92581    0.57619    1.000
    Si5722   Si       0.86824    0.99842    0.58121    1.000
    N5723    N        0.89904    0.98352    0.55492    1.000
    Si5724   Si       0.93600    0.96848    0.56883    1.000
    N5725    N        0.81913    0.78686    0.61880    1.000
    N5726    N        0.75378    0.82642    0.61792    1.000
    Si5727   Si       0.76083    0.86142    0.59159    1.000
    Si5728   Si       0.78906    0.80499    0.59414    1.000
    N5729    N        0.75884    0.77092    0.58866    1.000
    Si5730   Si       0.86018    0.77292    0.60730    1.000
    Si5731   Si       0.98972    0.83774    0.60235    1.000
    N5732    N        0.89221    0.79476    0.62798    1.000
    Si5733   Si       0.92090    0.82077    0.60770    1.000
    N5734    N        0.91179    0.86258    0.60206    1.000
    N5735    N        0.95813    0.82409    0.62866    1.000
    N5736    N        0.74759    0.89493    0.61444    1.000
    Si5737   Si       0.83190    0.93496    0.60240    1.000
    Si5738   Si       0.76712    0.97394    0.59421    1.000
    N5739    N        0.85569    0.97132    0.61217    1.000
    N5740    N        0.85508    0.89794    0.59200    1.000
    N5741    N        0.74618    0.95659    0.62943    1.000
    N5742    N        0.81171    0.92431    0.64104    1.000
    Si5743   Si       0.88558    0.88995    0.62082    1.000
    N5744    N        0.91381    0.91883    0.63844    1.000
    N5745    N        0.94344    0.97758    0.61195    1.000
    Si5746   Si       0.95023    0.93271    0.61839    1.000
    N5747    N        0.77993    0.79815    0.68287    1.000
    N5748    N        0.84616    0.80031    0.67738    1.000
    Si5749   Si       0.76492    0.83450    0.66023    1.000
    Si5750   Si       0.81235    0.77991    0.66051    1.000
    N5751    N        0.80261    0.85525    0.66648    1.000
    Si5752   Si       0.82033    0.83091    0.69925    1.000
    N5753    N        0.86612    0.88013    0.65808    1.000
    Si5754   Si       0.88952    0.80095    0.67136    1.000
    N5755    N        0.91635    0.83578    0.67870    1.000
    Si5756   Si       0.95863    0.83591    0.67149    1.000
    N5757    N        0.97944    0.87590    0.67541    1.000
    Si5758   Si       0.89028    0.86995    0.69237    1.000
    N5759    N        0.98004    0.80572    0.69136    1.000
    N5760    N        0.89474    0.76320    0.69458    1.000
    Si5761   Si       0.98827    0.76819    0.67373    1.000
    Si5762   Si       0.82663    0.89238    0.66764    1.000
    N5763    N        0.76117    0.91218    0.68504    1.000
    Si5764   Si       0.76880    0.92145    0.64480    1.000
    N5765    N        0.83153    0.00938    0.66714    1.000
    Si5766   Si       0.86266    0.98357    0.65227    1.000
    Si5767   Si       0.94199    0.99374    0.65204    1.000
    Si5768   Si       0.90933    0.93607    0.67784    1.000
    N5769    N        0.86972    0.95377    0.68228    1.000
    N5770    N        0.94434    0.96078    0.68133    1.000
    N5771    N        0.81972    0.78374    0.73590    1.000
    N5772    N        0.78672    0.85012    0.72525    1.000
    Si5773   Si       0.77652    0.78108    0.72432    1.000
    N5774    N        0.85799    0.84953    0.71561    1.000
    Si5775   Si       0.74489    0.83925    0.72471    1.000
    N5776    N        0.74634    0.80259    0.74817    1.000
    Si5777   Si       0.85086    0.76213    0.70888    1.000
    Si5778   Si       0.86469    0.85779    0.75783    1.000
    N5779    N        0.96990    0.85030    0.74269    1.000
    N5780    N        0.96590    0.77977    0.76016    1.000
    Si5781   Si       0.98355    0.81039    0.73476    1.000
    Si5782   Si       0.80462    0.88772    0.74064    1.000
    N5783    N        0.82551    0.90777    0.70741    1.000
    Si5784   Si       0.84711    0.94521    0.72015    1.000
    N5785    N        0.75263    0.98736    0.73461    1.000
    N5786    N        0.82017    0.97854    0.72835    1.000
    Si5787   Si       0.78535    0.96471    0.75110    1.000
    N5788    N        0.77601    0.92005    0.75043    1.000
    Si5789   Si       0.74296    0.91139    0.72477    1.000
    N5790    N        0.93509    0.95464    0.75202    1.000
    Si5791   Si       0.90786    0.91992    0.75260    1.000
    N5792    N        0.86710    0.93465    0.75547    1.000
    N5793    N        0.90946    0.90486    0.70863    1.000
    Si5794   Si       0.96475    0.95294    0.71893    1.000
    N5795    N        0.98991    0.92097    0.73409    1.000
    N5796    N        0.80916    0.81038    0.79963    1.000
    Si5797   Si       0.82553    0.84787    0.80902    1.000
    Si5798   Si       0.83809    0.78864    0.77321    1.000
    N5799    N        0.82740    0.87168    0.77344    1.000
    N5800    N        0.87148    0.81635    0.77575    1.000
    Si5801   Si       0.96400    0.79148    0.80137    1.000
    N5802    N        0.93815    0.82605    0.80023    1.000
    Si5803   Si       0.94437    0.86072    0.77418    1.000
    Si5804   Si       0.89586    0.82297    0.81097    1.000
    N5805    N        0.90323    0.87574    0.76722    1.000
    N5806    N        0.78643    0.97215    0.79540    1.000
    N5807    N        0.85693    0.98417    0.80430    1.000
    Si5808   Si       0.81687    0.99806    0.80850    1.000
    Si5809   Si       0.74985    0.95829    0.81272    1.000
    Si5810   Si       0.86621    0.94262    0.79698    1.000
    N5811    N        0.90859    0.93947    0.80514    1.000
    Si5812   Si       0.94147    0.97038    0.79267    1.000
    N5813    N        0.96059    0.89700    0.79285    1.000
    N5814    N        0.98132    0.99542    0.79019    1.000
    N5815    N        0.80126    0.86547    0.84186    1.000
    N5816    N        0.78781    0.79962    0.86151    1.000
    Si5817   Si       0.78179    0.84254    0.87446    1.000
    Si5818   Si       0.77836    0.78674    0.81927    1.000
    N5819    N        0.86593    0.85380    0.82392    1.000
    N5820    N        0.73965    0.85055    0.86360    1.000
    N5821    N        0.88709    0.79190    0.83853    1.000
    N5822    N        0.95256    0.76645    0.83454    1.000
    Si5823   Si       0.89377    0.80271    0.87983    1.000
    N5824    N        0.75082    0.97536    0.85344    1.000
    Si5825   Si       0.79953    0.90790    0.83391    1.000
    N5826    N        0.75613    0.91593    0.82518    1.000
    N5827    N        0.79535    0.92608    0.87474    1.000
    N5828    N        0.84139    0.91781    0.82424    1.000
    Si5829   Si       0.86735    0.88931    0.84706    1.000
    N5830    N        0.96275    0.95515    0.83154    1.000
    N5831    N        0.96729    0.89989    0.86285    1.000
    N5832    N        0.90998    0.89357    0.84993    1.000
    Si5833   Si       0.94277    0.91566    0.82736    1.000
    N5834    N        0.79788    0.85203    0.91300    1.000
    Si5835   Si       0.84145    0.85352    0.91113    1.000
    N5836    N        0.80825    0.77020    0.92053    1.000
    N5837    N        0.85382    0.81597    0.89222    1.000
    Si5838   Si       0.82259    0.78434    0.88299    1.000
    N5839    N        0.97052    0.79519    0.92112    1.000
    Si5840   Si       0.94402    0.83258    0.92653    1.000
    N5841    N        0.90719    0.76469    0.89751    1.000
    N5842    N        0.93084    0.83044    0.88366    1.000
    Si5843   Si       0.93289    0.87342    0.87916    1.000
    N5844    N        0.82633    0.93678    0.93611    1.000
    Si5845   Si       0.83531    0.92918    0.89383    1.000
    N5846    N        0.75648    0.95616    0.91827    1.000
    N5847    N        0.85308    0.88802    0.88764    1.000
    N5848    N        0.85529    0.96493    0.88382    1.000
    Si5849   Si       0.75553    0.94133    0.87813    1.000
    Si5850   Si       0.84574    0.00600    0.87952    1.000
    N5851    N        0.92730    0.87990    0.92042    1.000
    N5852    N        0.98067    0.96895    0.90229    1.000
    N5853    N        0.76882    0.80427    0.96386    1.000
    N5854    N        0.80075    0.86279    0.98258    1.000
    Si5855   Si       0.77956    0.84448    0.95090    1.000
    Si5856   Si       0.77557    0.76360    0.94896    1.000
    N5857    N        0.85894    0.85783    0.95083    1.000
    N5858    N        0.86783    0.75825    0.95933    1.000
    N5859    N        0.74127    0.86327    0.94650    1.000
    Si5860   Si       0.73851    0.80538    0.99614    1.000
    Si5861   Si       0.89031    0.84045    0.97757    1.000
    N5862    N        0.91183    0.81427    0.94949    1.000
    N5863    N        0.92660    0.87342    0.98929    1.000
    Si5864   Si       0.96966    0.86355    0.99134    1.000
    N5865    N        0.97671    0.84923    0.95100    1.000
    Si5866   Si       0.90645    0.77150    0.94065    1.000
    Si5867   Si       0.83714    0.88541    0.98058    1.000
    N5868    N        0.76630    0.92451    0.97605    1.000
    Si5869   Si       0.85318    0.94737    0.97058    1.000
    N5870    N        0.79193    0.99106    0.96351    1.000
    Si5871   Si       0.78632    0.95177    0.94773    1.000
    Si5872   Si       0.76038    0.99653    0.99680    1.000
    Si5873   Si       0.91651    0.97279    0.99393    1.000
    N5874    N        0.96431    0.92658    0.94986    1.000
    N5875    N        0.88780    0.92025    0.96832    1.000
    N5876    N        0.87335    0.98072    0.98784    1.000
    N5877    N        0.93023    0.98788    0.95469    1.000
    Si5878   Si       0.92648    0.90289    0.95546    1.000
    Si5879   Si       0.96859    0.97020    0.94315    1.000
