# CIF file generated by openbabel 3.1.1, see https://openbabel.org
data_I
_chemical_name_common '3.01-85.aims'
_cell_length_a 39.8934
_cell_length_b 39.8934
_cell_length_c 39.8934
_cell_angle_alpha 90
_cell_angle_beta 90
_cell_angle_gamma 90
loop_
    _atom_site_label
    _atom_site_type_symbol
    _atom_site_fract_x
    _atom_site_fract_y
    _atom_site_fract_z
    _atom_site_occupancy
    Si0      Si       0.03014    0.10334    0.06868    1.000
    Si1      Si       0.03300    0.04422    0.01371    1.000
    N2       N        0.02755    0.08244    0.03073    1.000
    Si3      Si       0.03171    0.12004    0.00861    1.000
    N4       N        0.01754    0.00912    0.03783    1.000
    Si5      Si       0.99761    0.24684    0.04362    1.000
    N6       N        0.02832    0.14149    0.04721    1.000
    Si7      Si       0.00453    0.17601    0.05326    1.000
    N8       N        0.02630    0.21248    0.03890    1.000
    N9       N        0.00166    0.18062    0.09714    1.000
    N10      N        0.00597    0.25657    0.08495    1.000
    N11      N        0.01582    0.05012    0.12929    1.000
    N12      N        0.01418    0.11937    0.14176    1.000
    Si13     Si       0.02977    0.06753    0.21582    1.000
    Si14     Si       0.99820    0.02414    0.15870    1.000
    N15      N        0.99355    0.05159    0.19310    1.000
    Si16     Si       0.01594    0.13040    0.18406    1.000
    N17      N        0.04868    0.10165    0.19368    1.000
    Si18     Si       0.98953    0.08571    0.12659    1.000
    N19      N        0.01352    0.17248    0.17051    1.000
    Si20     Si       0.99150    0.25269    0.12708    1.000
    Si21     Si       0.02343    0.15980    0.13023    1.000
    N22      N        0.03114    0.24579    0.14158    1.000
    N23      N        0.00188    0.22912    0.20268    1.000
    Si24     Si       0.04166    0.23186    0.18105    1.000
    Si25     Si       0.02253    0.06578    0.29689    1.000
    N26      N        0.01796    0.08077    0.25530    1.000
    N27      N        0.03938    0.02552    0.30255    1.000
    Si28     Si       0.99500    0.11937    0.25021    1.000
    N29      N        0.98671    0.07325    0.31809    1.000
    Si30     Si       0.02088    0.23592    0.30531    1.000
    N31      N        0.01509    0.15558    0.25681    1.000
    N32      N        0.02608    0.25633    0.26758    1.000
    N33      N        0.04726    0.20103    0.30495    1.000
    N34      N        0.03418    0.09813    0.40956    1.000
    Si35     Si       0.99659    0.10265    0.43280    1.000
    N36      N        0.01892    0.01725    0.42231    1.000
    N37      N        0.99605    0.10237    0.47745    1.000
    N38      N        0.99493    0.01488    0.49275    1.000
    Si39     Si       0.02158    0.24287    0.44734    1.000
    N40      N        0.04333    0.23051    0.48354    1.000
    N41      N        0.01603    0.16278    0.48467    1.000
    N42      N        0.03263    0.23713    0.40491    1.000
    N43      N        0.98871    0.21110    0.43903    1.000
    Si44     Si       0.98917    0.22911    0.39704    1.000
    N45      N        0.01950    0.09971    0.54201    1.000
    N46      N        0.02242    0.02030    0.55388    1.000
    Si47     Si       0.04104    0.06335    0.55168    1.000
    Si48     Si       0.02508    0.12067    0.50229    1.000
    Si49     Si       0.03283    0.01428    0.51205    1.000
    N50      N        0.98812    0.02011    0.61514    1.000
    N51      N        0.99711    0.21916    0.58796    1.000
    Si52     Si       0.02698    0.19717    0.50964    1.000
    Si53     Si       0.01730    0.18066    0.58603    1.000
    N54      N        0.04145    0.18140    0.54839    1.000
    N55      N        0.99541    0.22602    0.52080    1.000
    N56      N        0.00408    0.08906    0.63803    1.000
    N57      N        0.03325    0.10443    0.68873    1.000
    Si58     Si       0.99465    0.11059    0.67470    1.000
    Si59     Si       0.04640    0.09204    0.64791    1.000
    Si60     Si       0.01177    0.24524    0.62102    1.000
    N61      N        0.04623    0.18023    0.61909    1.000
    N62      N        0.03713    0.23687    0.65744    1.000
    N63      N        0.04453    0.18251    0.69672    1.000
    N64      N        0.99016    0.15111    0.65918    1.000
    Si65     Si       0.00170    0.17292    0.69387    1.000
    Si66     Si       0.00653    0.07319    0.78383    1.000
    N67      N        0.02205    0.10952    0.76640    1.000
    N68      N        0.03168    0.06810    0.86582    1.000
    N69      N        0.04191    0.05174    0.79710    1.000
    N70      N        0.99374    0.13119    0.85202    1.000
    Si71     Si       0.99092    0.08822    0.85722    1.000
    N72      N        0.04075    0.18034    0.83381    1.000
    N73      N        0.03652    0.18335    0.76720    1.000
    Si74     Si       0.00904    0.15068    0.76574    1.000
    Si75     Si       0.03470    0.20949    0.80233    1.000
    N76      N        0.99415    0.22774    0.80057    1.000
    N77      N        0.04745    0.24847    0.86578    1.000
    Si78     Si       0.02702    0.15459    0.87228    1.000
    N79      N        0.00204    0.03966    0.98311    1.000
    Si80     Si       0.01354    0.04700    0.94206    1.000
    N81      N        0.02663    0.12346    0.90772    1.000
    Si82     Si       0.99460    0.12511    0.93586    1.000
    N83      N        0.01298    0.00793    0.92175    1.000
    N84      N        0.04569    0.24398    0.98154    1.000
    Si85     Si       0.02613    0.22650    0.89688    1.000
    N86      N        0.00261    0.13337    0.97868    1.000
    N87      N        0.00659    0.18726    0.89525    1.000
    Si88     Si       0.00892    0.32289    0.04261    1.000
    N89      N        0.01265    0.28430    0.02236    1.000
    N90      N        0.03769    0.35169    0.11290    1.000
    Si91     Si       0.99704    0.36321    0.09805    1.000
    N92      N        0.99396    0.34713    0.00970    1.000
    Si93     Si       0.02162    0.47735    0.03501    1.000
    N94      N        0.01201    0.40285    0.08109    1.000
    Si95     Si       0.02408    0.48215    0.11082    1.000
    N96      N        0.04218    0.46914    0.07237    1.000
    Si97     Si       0.04584    0.39410    0.10967    1.000
    N98      N        0.04417    0.45928    0.00145    1.000
    Si99     Si       0.00998    0.36159    0.23429    1.000
    N100     N        0.01634    0.37783    0.19392    1.000
    N101     N        0.03347    0.32655    0.24973    1.000
    Si102    Si       0.99738    0.40084    0.16143    1.000
    N103     N        0.04263    0.43924    0.21149    1.000
    N104     N        0.04238    0.41023    0.14779    1.000
    Si105    Si       0.01094    0.46494    0.20138    1.000
    N106     N        0.02932    0.50327    0.19290    1.000
    Si107    Si       0.01865    0.30936    0.32963    1.000
    Si108    Si       0.00541    0.29482    0.26307    1.000
    N109     N        0.03138    0.26527    0.33543    1.000
    N110     N        0.04790    0.33602    0.31370    1.000
    N111     N        0.98624    0.30290    0.30075    1.000
    Si112    Si       0.04737    0.48734    0.36801    1.000
    Si113    Si       0.04533    0.43138    0.25437    1.000
    N114     N        0.03316    0.39030    0.25939    1.000
    N115     N        0.02650    0.46224    0.27922    1.000
    N116     N        0.02115    0.40518    0.35781    1.000
    N117     N        0.00553    0.50003    0.35830    1.000
    N118     N        0.00790    0.32226    0.37042    1.000
    Si119    Si       0.03010    0.34930    0.39890    1.000
    N120     N        0.99583    0.37135    0.48345    1.000
    N121     N        0.99816    0.27296    0.46647    1.000
    N122     N        0.00253    0.38087    0.41719    1.000
    N123     N        0.04855    0.32486    0.42990    1.000
    N124     N        0.02015    0.50573    0.43516    1.000
    N125     N        0.01662    0.44202    0.46138    1.000
    N126     N        0.04794    0.45282    0.39555    1.000
    Si127    Si       0.99405    0.46745    0.48928    1.000
    Si128    Si       0.01878    0.39828    0.45616    1.000
    Si129    Si       0.01649    0.46369    0.42562    1.000
    Si130    Si       0.01169    0.37158    0.52463    1.000
    Si131    Si       0.00584    0.30058    0.56625    1.000
    N132     N        0.03475    0.27503    0.59721    1.000
    N133     N        0.03943    0.28632    0.53293    1.000
    Si134    Si       0.01544    0.26068    0.50594    1.000
    N135     N        0.99583    0.33943    0.54685    1.000
    N136     N        0.99121    0.31918    0.60539    1.000
    N137     N        0.00159    0.38984    0.59566    1.000
    Si138    Si       0.01067    0.42655    0.57440    1.000
    Si139    Si       0.00522    0.48927    0.60782    1.000
    N140     N        0.02452    0.47931    0.52064    1.000
    N141     N        0.99452    0.41131    0.53638    1.000
    N142     N        0.00219    0.37383    0.66266    1.000
    N143     N        0.02268    0.30673    0.66411    1.000
    Si144    Si       0.01885    0.34446    0.68889    1.000
    N145     N        0.01320    0.27047    0.72171    1.000
    Si146    Si       0.03821    0.26859    0.68699    1.000
    Si147    Si       0.02714    0.37723    0.62771    1.000
    Si148    Si       0.04618    0.30688    0.62471    1.000
    Si149    Si       0.04225    0.37872    0.74472    1.000
    Si150    Si       0.03799    0.44596    0.65527    1.000
    N151     N        0.04173    0.48114    0.63004    1.000
    N152     N        0.00846    0.40274    0.72966    1.000
    N153     N        0.99793    0.44427    0.67613    1.000
    Si154    Si       0.02139    0.44062    0.71449    1.000
    N155     N        0.03218    0.46756    0.74817    1.000
    N156     N        0.02874    0.35738    0.78097    1.000
    Si157    Si       0.03687    0.28818    0.85055    1.000
    N158     N        0.99507    0.28524    0.84200    1.000
    N159     N        0.99902    0.49145    0.79770    1.000
    N160     N        0.03252    0.43019    0.80842    1.000
    N161     N        0.03067    0.48857    0.86050    1.000
    Si162    Si       0.00774    0.50299    0.75622    1.000
    N163     N        0.02047    0.39915    0.86951    1.000
    Si164    Si       0.99281    0.44699    0.80314    1.000
    N165     N        0.04405    0.31885    0.88105    1.000
    Si166    Si       0.01494    0.27607    0.97835    1.000
    N167     N        0.03182    0.29973    0.94606    1.000
    N168     N        0.00469    0.36269    0.93285    1.000
    Si169    Si       0.01929    0.32599    0.91549    1.000
    Si170    Si       0.00620    0.37458    0.97721    1.000
    Si171    Si       0.02945    0.39615    0.91192    1.000
    N172     N        0.02842    0.42737    0.94107    1.000
    Si173    Si       0.02301    0.50425    0.90043    1.000
    Si174    Si       0.02404    0.46524    0.96241    1.000
    N175     N        0.04522    0.49414    0.93667    1.000
    N176     N        0.01931    0.58781    0.02594    1.000
    N177     N        0.02418    0.52101    0.02810    1.000
    Si178    Si       0.99343    0.62396    0.03618    1.000
    N179     N        0.01297    0.52288    0.11566    1.000
    Si180    Si       0.99475    0.55205    0.02977    1.000
    N181     N        0.04740    0.58488    0.10356    1.000
    N182     N        0.00755    0.63400    0.07673    1.000
    N183     N        0.03529    0.69803    0.05559    1.000
    N184     N        0.00374    0.73072    0.00807    1.000
    Si185    Si       0.02050    0.69191    0.01556    1.000
    Si186    Si       0.04268    0.66127    0.07430    1.000
    N187     N        0.03264    0.72818    0.11627    1.000
    N188     N        0.99288    0.65787    0.01060    1.000
    Si189    Si       0.04483    0.73677    0.07618    1.000
    Si190    Si       0.03496    0.55678    0.13550    1.000
    N191     N        0.01392    0.56586    0.17327    1.000
    Si192    Si       0.02842    0.54315    0.20976    1.000
    N193     N        0.03356    0.63212    0.22270    1.000
    N194     N        0.99554    0.54647    0.23706    1.000
    N195     N        0.99971    0.69494    0.22889    1.000
    N196     N        0.01437    0.74762    0.17638    1.000
    N197     N        0.04133    0.68204    0.17287    1.000
    Si198    Si       0.00187    0.75197    0.13321    1.000
    Si199    Si       0.03271    0.64021    0.18043    1.000
    Si200    Si       0.00751    0.65664    0.24772    1.000
    Si201    Si       0.02836    0.71370    0.20151    1.000
    N202     N        0.03902    0.53589    0.30801    1.000
    Si203    Si       0.99931    0.52896    0.32756    1.000
    Si204    Si       0.02606    0.70918    0.30158    1.000
    N205     N        0.02285    0.66757    0.28655    1.000
    N206     N        0.03172    0.74816    0.28294    1.000
    N207     N        0.99146    0.71620    0.32678    1.000
    N208     N        0.00224    0.59041    0.39479    1.000
    Si209    Si       0.01784    0.59519    0.43542    1.000
    N210     N        0.99431    0.56765    0.45722    1.000
    N211     N        0.01399    0.67361    0.38079    1.000
    Si212    Si       0.00763    0.67194    0.42412    1.000
    Si213    Si       0.01758    0.63522    0.49248    1.000
    N214     N        0.01187    0.63607    0.44819    1.000
    N215     N        0.03704    0.69904    0.44153    1.000
    N216     N        0.04681    0.75934    0.42185    1.000
    Si217    Si       0.01298    0.56025    0.59960    1.000
    N218     N        0.01154    0.55047    0.52159    1.000
    N219     N        0.02632    0.58900    0.57178    1.000
    N220     N        0.01820    0.52025    0.58151    1.000
    Si221    Si       0.99844    0.62092    0.56425    1.000
    Si222    Si       0.04280    0.57748    0.53421    1.000
    Si223    Si       0.00523    0.51325    0.54102    1.000
    Si224    Si       0.00233    0.68714    0.54787    1.000
    N225     N        0.01686    0.65661    0.57699    1.000
    N226     N        0.02241    0.67462    0.51089    1.000
    N227     N        0.00269    0.72688    0.56538    1.000
    Si228    Si       0.03808    0.66246    0.61437    1.000
    Si229    Si       0.03801    0.75217    0.56168    1.000
    N230     N        0.02822    0.58049    0.69390    1.000
    N231     N        0.04056    0.55959    0.63345    1.000
    N232     N        0.02729    0.63309    0.64323    1.000
    Si233    Si       0.04747    0.59671    0.65669    1.000
    N234     N        0.02533    0.54078    0.74654    1.000
    Si235    Si       0.03999    0.68383    0.73872    1.000
    N236     N        0.04623    0.69980    0.63589    1.000
    Si237    Si       0.03323    0.74194    0.63676    1.000
    Si238    Si       0.99999    0.65073    0.67143    1.000
    N239     N        0.02151    0.66730    0.70489    1.000
    N240     N        0.01400    0.60222    0.78558    1.000
    N241     N        0.03843    0.54627    0.82454    1.000
    N242     N        0.04222    0.61515    0.84785    1.000
    Si243    Si       0.99710    0.56899    0.76258    1.000
    Si244    Si       0.04373    0.58749    0.81103    1.000
    Si245    Si       0.00899    0.51495    0.83137    1.000
    N246     N        0.01599    0.70789    0.76731    1.000
    N247     N        0.00431    0.66543    0.82487    1.000
    Si248    Si       0.03499    0.68723    0.80258    1.000
    N249     N        0.01106    0.57388    0.95488    1.000
    Si250    Si       0.02663    0.58151    0.91544    1.000
    N251     N        0.03863    0.54410    0.89385    1.000
    Si252    Si       0.04238    0.57937    0.98505    1.000
    N253     N        0.99639    0.60634    0.89595    1.000
    Si254    Si       0.00061    0.68006    0.91722    1.000
    Si255    Si       0.01291    0.64042    0.86906    1.000
    N256     N        0.04448    0.75261    0.87674    1.000
    N257     N        0.00287    0.72184    0.92875    1.000
    N258     N        0.03720    0.66517    0.89729    1.000
    Si259    Si       0.03752    0.74863    0.91950    1.000
    N260     N        0.02490    0.83672    0.07273    1.000
    N261     N        0.02178    0.77119    0.05941    1.000
    Si262    Si       0.00195    0.80244    0.08211    1.000
    Si263    Si       0.01223    0.87362    0.09103    1.000
    Si264    Si       0.02759    0.76687    0.01431    1.000
    N265     N        0.02837    0.81192    0.00343    1.000
    N266     N        0.99432    0.87061    0.01401    1.000
    N267     N        0.03665    0.95583    0.08339    1.000
    Si268    Si       0.99506    0.94510    0.09158    1.000
    N269     N        0.98953    0.90535    0.07179    1.000
    N270     N        0.00755    0.79415    0.12375    1.000
    N271     N        0.03184    0.84511    0.16512    1.000
    N272     N        0.02971    0.79435    0.21990    1.000
    Si273    Si       0.99638    0.82965    0.14650    1.000
    Si274    Si       0.99389    0.78040    0.19874    1.000
    Si275    Si       0.04650    0.76634    0.24727    1.000
    N276     N        0.01767    0.98189    0.24574    1.000
    Si277    Si       0.99790    0.95025    0.17141    1.000
    N278     N        0.01565    0.98849    0.17455    1.000
    Si279    Si       0.03933    0.99283    0.21091    1.000
    N280     N        0.02992    0.92134    0.17395    1.000
    N281     N        0.02627    0.81631    0.28452    1.000
    Si282    Si       0.02395    0.78118    0.31133    1.000
    N283     N        0.04237    0.77448    0.34939    1.000
    N284     N        0.04296    0.85888    0.35535    1.000
    Si285    Si       0.04753    0.84829    0.26544    1.000
    N286     N        0.02224    0.88628    0.26291    1.000
    Si287    Si       0.00894    0.88431    0.36505    1.000
    N288     N        0.00353    0.91743    0.33854    1.000
    Si289    Si       0.03770    0.94488    0.34276    1.000
    N290     N        0.02449    0.97921    0.36389    1.000
    Si291    Si       0.04335    0.98842    0.28182    1.000
    N292     N        0.04181    0.94808    0.29849    1.000
    Si293    Si       0.03302    0.76508    0.46105    1.000
    N294     N        0.02616    0.80690    0.47181    1.000
    Si295    Si       0.02123    0.76947    0.38710    1.000
    N296     N        0.01159    0.81072    0.39618    1.000
    N297     N        0.02135    0.90813    0.40303    1.000
    Si298    Si       0.99201    0.93426    0.42296    1.000
    Si299    Si       0.02854    0.94198    0.49292    1.000
    N300     N        0.00544    0.95580    0.45867    1.000
    Si301    Si       0.99770    0.99722    0.45310    1.000
    Si302    Si       0.04853    0.00298    0.39241    1.000
    Si303    Si       0.02421    0.80863    0.59897    1.000
    N304     N        0.03148    0.78545    0.53536    1.000
    N305     N        0.00912    0.84604    0.53532    1.000
    N306     N        0.04142    0.76692    0.60373    1.000
    Si307    Si       0.99063    0.80579    0.54105    1.000
    Si308    Si       0.99288    0.88517    0.52655    1.000
    N309     N        0.02090    0.89536    0.59565    1.000
    N310     N        0.00884    0.92419    0.52684    1.000
    Si311    Si       0.99979    0.92626    0.57091    1.000
    N312     N        0.99423    0.96233    0.59054    1.000
    Si313    Si       0.98992    0.00259    0.57472    1.000
    N314     N        0.01326    0.83796    0.62841    1.000
    Si315    Si       0.02468    0.83783    0.67086    1.000
    Si316    Si       0.01676    0.77456    0.70232    1.000
    N317     N        0.99815    0.81204    0.69469    1.000
    N318     N        0.00287    0.87737    0.74135    1.000
    N319     N        0.04350    0.76772    0.66912    1.000
    N320     N        0.04570    0.77187    0.73469    1.000
    Si321    Si       0.00014    0.88044    0.63151    1.000
    N322     N        0.01386    0.88022    0.67341    1.000
    N323     N        0.03950    0.97638    0.63567    1.000
    Si324    Si       0.02779    0.89848    0.71063    1.000
    Si325    Si       0.04539    0.96210    0.74024    1.000
    Si326    Si       0.99784    0.98117    0.63171    1.000
    N327     N        0.01776    0.94032    0.71441    1.000
    N328     N        0.03349    0.00311    0.74624    1.000
    Si329    Si       0.00736    0.85603    0.77856    1.000
    Si330    Si       0.02709    0.77943    0.84621    1.000
    Si331    Si       0.03100    0.78159    0.77422    1.000
    N332     N        0.03495    0.82326    0.84928    1.000
    N333     N        0.03497    0.82316    0.78055    1.000
    N334     N        0.03170    0.87990    0.80700    1.000
    Si335    Si       0.99151    0.83054    0.84838    1.000
    N336     N        0.04952    0.76661    0.81188    1.000
    Si337    Si       0.00111    0.98222    0.83508    1.000
    Si338    Si       0.03292    0.92300    0.81224    1.000
    N339     N        0.03910    0.99979    0.84539    1.000
    N340     N        0.99283    0.94088    0.82154    1.000
    N341     N        0.04967    0.94688    0.78037    1.000
    Si342    Si       0.98943    0.83251    0.99321    1.000
    Si343    Si       0.01971    0.86769    0.93671    1.000
    N344     N        0.03070    0.87330    0.89544    1.000
    N345     N        0.99122    0.83464    0.94891    1.000
    Si346    Si       0.00399    0.90717    0.99148    1.000
    N347     N        0.04134    0.92278    0.99907    1.000
    N348     N        0.02155    0.94424    0.90484    1.000
    Si349    Si       0.04664    0.97816    0.91735    1.000
    N350     N        0.99841    0.90269    0.94912    1.000
    Si351    Si       0.08893    0.12325    0.10738    1.000
    N352     N        0.06188    0.09062    0.09380    1.000
    N353     N        0.07498    0.04713    0.00409    1.000
    Si354    Si       0.05604    0.05239    0.11361    1.000
    N355     N        0.06497    0.01635    0.09007    1.000
    Si356    Si       0.10293    0.01479    0.01597    1.000
    N357     N        0.08298    0.22381    0.09807    1.000
    Si358    Si       0.06052    0.21767    0.01570    1.000
    N359     N        0.09408    0.24128    0.03083    1.000
    N360     N        0.06511    0.15913    0.11901    1.000
    Si361    Si       0.04838    0.24987    0.10172    1.000
    N362     N        0.05686    0.03396    0.21246    1.000
    Si363    Si       0.09270    0.03361    0.18895    1.000
    N364     N        0.08137    0.03275    0.14693    1.000
    Si365    Si       0.09085    0.10907    0.18733    1.000
    N366     N        0.10713    0.11033    0.14394    1.000
    N367     N        0.06788    0.20397    0.23954    1.000
    N368     N        0.07386    0.20505    0.17044    1.000
    Si369    Si       0.09280    0.18972    0.20656    1.000
    N370     N        0.09738    0.14483    0.21164    1.000
    Si371    Si       0.08769    0.19465    0.13149    1.000
    Si372    Si       0.06236    0.24671    0.24418    1.000
    Si373    Si       0.06937    0.04311    0.33107    1.000
    Si374    Si       0.07888    0.11916    0.31933    1.000
    N375     N        0.05540    0.08426    0.31982    1.000
    N376     N        0.07779    0.14338    0.28264    1.000
    Si377    Si       0.07405    0.18540    0.33549    1.000
    N378     N        0.06412    0.14677    0.35215    1.000
    N379     N        0.07916    0.21806    0.36576    1.000
    Si380    Si       0.05124    0.17596    0.26950    1.000
    N381     N        0.06559    0.03846    0.37455    1.000
    Si382    Si       0.10425    0.01364    0.43612    1.000
    N383     N        0.07959    0.05205    0.44343    1.000
    N384     N        0.09798    0.10451    0.39745    1.000
    Si385    Si       0.06821    0.07058    0.40630    1.000
    Si386    Si       0.08129    0.07217    0.48457    1.000
    N387     N        0.06870    0.11406    0.48840    1.000
    Si388    Si       0.05819    0.12912    0.39098    1.000
    Si389    Si       0.08578    0.22076    0.47973    1.000
    N390     N        0.09449    0.21572    0.43595    1.000
    N391     N        0.07123    0.16264    0.41382    1.000
    Si392    Si       0.06613    0.20505    0.40614    1.000
    N393     N        0.06553    0.05843    0.58711    1.000
    N394     N        0.05611    0.04978    0.51229    1.000
    Si395    Si       0.08908    0.04128    0.61982    1.000
    N396     N        0.08877    0.23262    0.55761    1.000
    Si397    Si       0.08352    0.18992    0.54887    1.000
    N398     N        0.08902    0.18406    0.50328    1.000
    N399     N        0.10459    0.16828    0.58057    1.000
    Si400    Si       0.10080    0.14240    0.49480    1.000
    N401     N        0.07822    0.12098    0.63476    1.000
    N402     N        0.06559    0.06474    0.73144    1.000
    Si403    Si       0.09161    0.05706    0.69444    1.000
    N404     N        0.07034    0.05523    0.65663    1.000
    Si405    Si       0.04756    0.10282    0.73024    1.000
    Si406    Si       0.08791    0.16118    0.61958    1.000
    Si407    Si       0.10263    0.24577    0.73068    1.000
    Si408    Si       0.06461    0.17757    0.73434    1.000
    N409     N        0.09641    0.20368    0.74413    1.000
    N410     N        0.07635    0.13517    0.73416    1.000
    Si411    Si       0.05683    0.19919    0.65952    1.000
    N412     N        0.10066    0.18811    0.65329    1.000
    N413     N        0.09784    0.04640    0.83706    1.000
    Si414    Si       0.05985    0.03446    0.76262    1.000
    Si415    Si       0.05226    0.04271    0.83820    1.000
    N416     N        0.09767    0.01549    0.77306    1.000
    N417     N        0.07469    0.23054    0.80150    1.000
    Si418    Si       0.08320    0.17386    0.83869    1.000
    N419     N        0.10594    0.16494    0.80255    1.000
    Si420    Si       0.10799    0.20432    0.78664    1.000
    Si421    Si       0.09683    0.06157    0.92976    1.000
    N422     N        0.09636    0.08971    0.89460    1.000
    N423     N        0.05335    0.06197    0.93358    1.000
    Si424    Si       0.05077    0.08852    0.89933    1.000
    N425     N        0.07168    0.12132    0.99313    1.000
    Si426    Si       0.10545    0.13454    0.89995    1.000
    Si427    Si       0.09553    0.08579    0.99708    1.000
    N428     N        0.07568    0.19139    0.98613    1.000
    N429     N        0.07464    0.14789    0.87411    1.000
    Si430    Si       0.08589    0.23496    0.88314    1.000
    Si431    Si       0.07533    0.22474    0.95672    1.000
    Si432    Si       0.09760    0.15447    0.98027    1.000
    N433     N        0.06278    0.21769    0.91643    1.000
    N434     N        0.10871    0.15702    0.93758    1.000
    Si435    Si       0.07228    0.34374    0.01263    1.000
    N436     N        0.06890    0.28696    0.10131    1.000
    Si437    Si       0.06543    0.32891    0.08981    1.000
    N438     N        0.10767    0.33621    0.10356    1.000
    N439     N        0.05135    0.33714    0.05093    1.000
    N440     N        0.08590    0.30431    0.00046    1.000
    N441     N        0.08676    0.40439    0.10483    1.000
    Si442    Si       0.08519    0.46442    0.05989    1.000
    N443     N        0.09807    0.43271    0.03339    1.000
    N444     N        0.09573    0.50242    0.03721    1.000
    N445     N        0.08936    0.31828    0.20425    1.000
    Si446    Si       0.07411    0.31012    0.24432    1.000
    Si447    Si       0.10190    0.28030    0.18703    1.000
    Si448    Si       0.10866    0.35476    0.22097    1.000
    N449     N        0.06314    0.26265    0.20287    1.000
    Si450    Si       0.05361    0.40294    0.18876    1.000
    Si451    Si       0.08689    0.44433    0.12502    1.000
    N452     N        0.09340    0.38628    0.19609    1.000
    N453     N        0.09926    0.48816    0.19748    1.000
    N454     N        0.05668    0.47207    0.13851    1.000
    Si455    Si       0.06683    0.49828    0.17145    1.000
    Si456    Si       0.10413    0.47415    0.24058    1.000
    N457     N        0.09379    0.34827    0.26111    1.000
    N458     N        0.08813    0.27591    0.26476    1.000
    Si459    Si       0.07371    0.36091    0.33851    1.000
    Si460    Si       0.05740    0.36077    0.27837    1.000
    Si461    Si       0.05332    0.49557    0.29421    1.000
    N462     N        0.07752    0.39294    0.30902    1.000
    N463     N        0.07091    0.48129    0.33188    1.000
    N464     N        0.08818    0.43547    0.25622    1.000
    N465     N        0.08264    0.50236    0.26195    1.000
    N466     N        0.09969    0.42960    0.36923    1.000
    N467     N        0.08305    0.28844    0.38141    1.000
    Si468    Si       0.08763    0.31035    0.42104    1.000
    N469     N        0.06609    0.37110    0.38011    1.000
    Si470    Si       0.05512    0.25649    0.37151    1.000
    N471     N        0.06004    0.38550    0.46449    1.000
    Si472    Si       0.10352    0.38265    0.45222    1.000
    Si473    Si       0.05849    0.41634    0.37737    1.000
    N474     N        0.09104    0.30527    0.56496    1.000
    Si475    Si       0.06913    0.31945    0.52816    1.000
    Si476    Si       0.06634    0.26906    0.56546    1.000
    N477     N        0.05368    0.35955    0.52723    1.000
    N478     N        0.05397    0.34748    0.61269    1.000
    Si479    Si       0.09654    0.34434    0.62002    1.000
    N480     N        0.10390    0.38030    0.58863    1.000
    N481     N        0.10210    0.31851    0.50041    1.000
    N482     N        0.10357    0.44743    0.61444    1.000
    Si483    Si       0.07497    0.38975    0.50554    1.000
    N484     N        0.08610    0.49217    0.55879    1.000
    N485     N        0.08467    0.43071    0.51915    1.000
    Si486    Si       0.06192    0.46197    0.53780    1.000
    Si487    Si       0.07293    0.47722    0.59936    1.000
    Si488    Si       0.08116    0.41375    0.60258    1.000
    N489     N        0.05267    0.44102    0.57659    1.000
    N490     N        0.05386    0.35870    0.70792    1.000
    N491     N        0.08714    0.30284    0.64208    1.000
    Si492    Si       0.09962    0.36033    0.69655    1.000
    N493     N        0.07991    0.26073    0.69691    1.000
    Si494    Si       0.08112    0.48359    0.70460    1.000
    N495     N        0.06054    0.44804    0.69287    1.000
    N496     N        0.05166    0.41046    0.63552    1.000
    N497     N        0.10602    0.49391    0.73773    1.000
    N498     N        0.07141    0.36677    0.83747    1.000
    N499     N        0.09161    0.34688    0.77058    1.000
    Si500    Si       0.06309    0.34055    0.80281    1.000
    Si501    Si       0.09105    0.27179    0.80328    1.000
    N502     N        0.06001    0.29958    0.81601    1.000
    N503     N        0.10289    0.27787    0.76253    1.000
    N504     N        0.07982    0.47291    0.80223    1.000
    Si505    Si       0.06806    0.47388    0.84396    1.000
    N506     N        0.08271    0.43455    0.85673    1.000
    N507     N        0.07146    0.40949    0.75861    1.000
    N508     N        0.09076    0.50756    0.86146    1.000
    Si509    Si       0.05692    0.44621    0.77622    1.000
    Si510    Si       0.05297    0.40633    0.84049    1.000
    Si511    Si       0.07539    0.34783    0.87567    1.000
    N512     N        0.06821    0.37446    0.91052    1.000
    N513     N        0.05086    0.36774    0.98259    1.000
    Si514    Si       0.08175    0.37838    0.95174    1.000
    Si515    Si       0.08335    0.44637    0.99441    1.000
    N516     N        0.09651    0.41677    0.96486    1.000
    N517     N        0.10481    0.48087    0.97629    1.000
    Si518    Si       0.06546    0.53140    0.02415    1.000
    N519     N        0.07968    0.56930    0.04478    1.000
    Si520    Si       0.06779    0.61945    0.12072    1.000
    N521     N        0.10740    0.61451    0.09633    1.000
    Si522    Si       0.04795    0.59596    0.06001    1.000
    N523     N        0.06286    0.63527    0.04606    1.000
    N524     N        0.05972    0.66127    0.11271    1.000
    Si525    Si       0.07588    0.64591    0.00612    1.000
    N526     N        0.08879    0.74139    0.07398    1.000
    N527     N        0.06912    0.75273    0.00909    1.000
    N528     N        0.06497    0.61665    0.16261    1.000
    N529     N        0.09979    0.61927    0.22055    1.000
    N530     N        0.07254    0.53910    0.15210    1.000
    N531     N        0.06473    0.56004    0.22980    1.000
    Si532    Si       0.06162    0.60296    0.24033    1.000
    Si533    Si       0.10833    0.61577    0.17724    1.000
    N534     N        0.09805    0.70909    0.13617    1.000
    N535     N        0.05903    0.73004    0.22588    1.000
    Si536    Si       0.05620    0.69801    0.13623    1.000
    Si537    Si       0.10233    0.72555    0.22610    1.000
    N538     N        0.08509    0.57011    0.34946    1.000
    Si539    Si       0.06775    0.56934    0.30825    1.000
    Si540    Si       0.09267    0.61187    0.35688    1.000
    N541     N        0.05688    0.60507    0.28284    1.000
    N542     N        0.10528    0.56133    0.28699    1.000
    Si543    Si       0.09881    0.54153    0.24799    1.000
    Si544    Si       0.10208    0.53848    0.37535    1.000
    N545     N        0.06111    0.63834    0.34252    1.000
    Si546    Si       0.05887    0.64527    0.29839    1.000
    N547     N        0.08818    0.66906    0.27446    1.000
    Si548    Si       0.09343    0.71861    0.35213    1.000
    N549     N        0.09756    0.75163    0.31828    1.000
    N550     N        0.05777    0.70374    0.32906    1.000
    Si551    Si       0.09685    0.70604    0.29527    1.000
    Si552    Si       0.05042    0.67405    0.36075    1.000
    N553     N        0.09294    0.62250    0.39776    1.000
    N554     N        0.05717    0.57536    0.43575    1.000
    Si555    Si       0.05578    0.52830    0.43067    1.000
    Si556    Si       0.09562    0.59039    0.42536    1.000
    N557     N        0.06894    0.51637    0.39166    1.000
    Si558    Si       0.07521    0.57052    0.48217    1.000
    N559     N        0.08460    0.53038    0.46654    1.000
    N560     N        0.04684    0.60200    0.49554    1.000
    N561     N        0.08043    0.69055    0.38780    1.000
    N562     N        0.08236    0.66767    0.47925    1.000
    N563     N        0.05636    0.73898    0.48894    1.000
    Si564    Si       0.06831    0.72107    0.41884    1.000
    N565     N        0.09968    0.75075    0.37994    1.000
    Si566    Si       0.04942    0.69461    0.48284    1.000
    N567     N        0.08334    0.56173    0.52947    1.000
    N568     N        0.09369    0.62688    0.53936    1.000
    N569     N        0.09345    0.51155    0.62337    1.000
    Si570    Si       0.09146    0.74749    0.51344    1.000
    N571     N        0.08075    0.65704    0.60702    1.000
    N572     N        0.07762    0.73459    0.55434    1.000
    N573     N        0.06019    0.51758    0.68810    1.000
    Si574    Si       0.05687    0.52106    0.64501    1.000
    N575     N        0.08777    0.60210    0.66940    1.000
    N576     N        0.09514    0.56438    0.72367    1.000
    Si577    Si       0.05358    0.55194    0.71508    1.000
    N578     N        0.07358    0.70947    0.72878    1.000
    N579     N        0.09903    0.63993    0.72826    1.000
    Si580    Si       0.08946    0.68612    0.63828    1.000
    Si581    Si       0.08316    0.75257    0.73133    1.000
    N582     N        0.07997    0.59466    0.78957    1.000
    N583     N        0.09339    0.57503    0.84966    1.000
    Si584    Si       0.06459    0.54257    0.86007    1.000
    Si585    Si       0.07849    0.61090    0.87120    1.000
    Si586    Si       0.08630    0.63367    0.77201    1.000
    N587     N        0.07011    0.69948    0.82711    1.000
    Si588    Si       0.07929    0.73213    0.85582    1.000
    N589     N        0.09713    0.64958    0.86894    1.000
    N590     N        0.05158    0.65905    0.77357    1.000
    Si591    Si       0.10423    0.67121    0.83281    1.000
    Si592    Si       0.09453    0.61561    0.94198    1.000
    N593     N        0.07090    0.61202    0.97901    1.000
    N594     N        0.06741    0.54289    0.98299    1.000
    N595     N        0.06609    0.60343    0.91077    1.000
    Si596    Si       0.08024    0.51207    0.95309    1.000
    N597     N        0.09993    0.65848    0.93949    1.000
    N598     N        0.05597    0.68305    0.99286    1.000
    N599     N        0.06966    0.72903    0.94255    1.000
    Si600    Si       0.08033    0.67113    0.90199    1.000
    Si601    Si       0.07713    0.72095    0.98318    1.000
    N602     N        0.09408    0.70963    0.89033    1.000
    N603     N        0.07467    0.86587    0.02811    1.000
    N604     N        0.08593    0.80870    0.05115    1.000
    Si605    Si       0.09656    0.76774    0.04047    1.000
    Si606    Si       0.04996    0.83037    0.03907    1.000
    Si607    Si       0.06837    0.92918    0.10103    1.000
    N608     N        0.07971    0.98045    0.02979    1.000
    N609     N        0.10314    0.92595    0.07471    1.000
    N610     N        0.10326    0.92902    0.99998    1.000
    N611     N        0.04639    0.89369    0.11233    1.000
    Si612    Si       0.08685    0.99592    0.12286    1.000
    Si613    Si       0.04839    0.98823    0.06166    1.000
    N614     N        0.06431    0.85395    0.22636    1.000
    N615     N        0.08792    0.80665    0.18428    1.000
    Si616    Si       0.05086    0.82471    0.19719    1.000
    N617     N        0.08453    0.89569    0.17466    1.000
    Si618    Si       0.07013    0.93915    0.17410    1.000
    N619     N        0.07637    0.96989    0.20251    1.000
    N620     N        0.07586    0.95466    0.13506    1.000
    Si621    Si       0.09537    0.95958    0.23908    1.000
    Si622    Si       0.09146    0.88666    0.21948    1.000
    N623     N        0.08043    0.92007    0.24487    1.000
    Si624    Si       0.04686    0.88467    0.15548    1.000
    Si625    Si       0.07895    0.85360    0.33219    1.000
    N626     N        0.09052    0.81409    0.31884    1.000
    N627     N        0.07640    0.87330    0.29148    1.000
    N628     N        0.08459    0.78595    0.25461    1.000
    Si629    Si       0.08441    0.78351    0.35331    1.000
    N630     N        0.08470    0.98962    0.26724    1.000
    N631     N        0.07694    0.93466    0.35829    1.000
    Si632    Si       0.05456    0.91042    0.27827    1.000
    N633     N        0.05252    0.85485    0.42890    1.000
    N634     N        0.08630    0.81501    0.38797    1.000
    Si635    Si       0.06103    0.82977    0.46307    1.000
    N636     N        0.10227    0.81486    0.45526    1.000
    Si637    Si       0.04851    0.83476    0.39128    1.000
    N638     N        0.08264    0.98254    0.41147    1.000
    Si639    Si       0.09618    0.94426    0.39527    1.000
    N640     N        0.05318    0.90864    0.47490    1.000
    N641     N        0.09364    0.90888    0.42129    1.000
    Si642    Si       0.05335    0.89784    0.43063    1.000
    Si643    Si       0.09576    0.82767    0.59786    1.000
    N644     N        0.05605    0.83124    0.57612    1.000
    N645     N        0.07369    0.84364    0.50173    1.000
    N646     N        0.09329    0.87164    0.61028    1.000
    Si647    Si       0.05829    0.87735    0.58321    1.000
    N648     N        0.10698    0.78751    0.51839    1.000
    Si649    Si       0.04879    0.82518    0.53261    1.000
    Si650    Si       0.08213    0.88679    0.49997    1.000
    N651     N        0.07552    0.89415    0.54531    1.000
    N652     N        0.09498    0.94598    0.58672    1.000
    Si653    Si       0.09664    0.97483    0.50678    1.000
    N654     N        0.09932    0.00118    0.61313    1.000
    N655     N        0.05377    0.97827    0.50402    1.000
    Si656    Si       0.11054    0.92085    0.55346    1.000
    N657     N        0.06463    0.83327    0.68366    1.000
    Si658    Si       0.08046    0.79301    0.66947    1.000
    Si659    Si       0.09145    0.86133    0.70101    1.000
    N660     N        0.10332    0.80877    0.63704    1.000
    N661     N        0.10565    0.76995    0.69778    1.000
    N662     N        0.07100    0.89707    0.71038    1.000
    Si663    Si       0.07816    0.96182    0.62578    1.000
    N664     N        0.09100    0.93184    0.65381    1.000
    N665     N        0.08468    0.96440    0.72350    1.000
    Si666    Si       0.09582    0.93127    0.69736    1.000
    N667     N        0.08456    0.86277    0.84937    1.000
    Si668    Si       0.09184    0.77761    0.80642    1.000
    N669     N        0.09504    0.82129    0.80609    1.000
    Si670    Si       0.05913    0.84640    0.81573    1.000
    N671     N        0.10329    0.77354    0.76663    1.000
    Si672    Si       0.07248    0.97102    0.85115    1.000
    N673     N        0.05762    0.93043    0.84688    1.000
    Si674    Si       0.05900    0.84434    0.87817    1.000
    Si675    Si       0.09023    0.79723    0.92808    1.000
    N676     N        0.08689    0.83482    0.90889    1.000
    Si677    Si       0.08843    0.86988    0.93454    1.000
    N678     N        0.09738    0.81311    0.96912    1.000
    N679     N        0.05461    0.86379    0.96137    1.000
    Si680    Si       0.05397    0.81775    0.96950    1.000
    N681     N        0.04708    0.78778    0.93709    1.000
    N682     N        0.08310    0.97083    0.89400    1.000
    Si683    Si       0.04618    0.91238    0.88663    1.000
    N684     N        0.06747    0.97673    0.95668    1.000
    Si685    Si       0.07224    0.89021    0.99439    1.000
    N686     N        0.08357    0.90565    0.90994    1.000
    Si687    Si       0.06793    0.95655    0.99328    1.000
    N688     N        0.12357    0.09576    0.03002    1.000
    N689     N        0.12752    0.03172    0.04705    1.000
    Si690    Si       0.15184    0.06517    0.04078    1.000
    Si691    Si       0.13766    0.13323    0.04566    1.000
    N692     N        0.11953    0.14147    0.08370    1.000
    N693     N        0.14680    0.20496    0.07117    1.000
    Si694    Si       0.14575    0.17280    0.09943    1.000
    Si695    Si       0.11526    0.23452    0.06838    1.000
    N696     N        0.13123    0.15496    0.00734    1.000
    Si697    Si       0.13861    0.08200    0.15627    1.000
    Si698    Si       0.13971    0.07060    0.23209    1.000
    N699     N        0.11748    0.07372    0.19434    1.000
    N700     N        0.15923    0.04874    0.13823    1.000
    N701     N        0.13214    0.03128    0.24581    1.000
    N702     N        0.13028    0.19025    0.13662    1.000
    Si703    Si       0.15456    0.20464    0.16846    1.000
    Si704    Si       0.15675    0.23620    0.22850    1.000
    N705     N        0.13070    0.21047    0.20519    1.000
    Si706    Si       0.13283    0.07624    0.30319    1.000
    N707     N        0.12067    0.10740    0.33086    1.000
    N708     N        0.12323    0.09536    0.26499    1.000
    Si709    Si       0.11743    0.01175    0.28077    1.000
    N710     N        0.10787    0.04137    0.31174    1.000
    Si711    Si       0.10902    0.13470    0.25341    1.000
    N712     N        0.11462    0.19319    0.32014    1.000
    Si713    Si       0.14288    0.18962    0.28672    1.000
    N714     N        0.14253    0.23102    0.26931    1.000
    N715     N        0.14707    0.15483    0.25660    1.000
    Si716    Si       0.11806    0.22835    0.34962    1.000
    Si717    Si       0.13363    0.10799    0.37143    1.000
    N718     N        0.13738    0.03107    0.41560    1.000
    N719     N        0.12999    0.14428    0.46051    1.000
    N720     N        0.14266    0.23645    0.38478    1.000
    Si721    Si       0.12871    0.24261    0.42570    1.000
    N722     N        0.14380    0.14540    0.39360    1.000
    Si723    Si       0.11086    0.14401    0.42193    1.000
    Si724    Si       0.14429    0.09548    0.51964    1.000
    Si725    Si       0.12940    0.02461    0.50864    1.000
    Si726    Si       0.15901    0.06534    0.59566    1.000
    N727     N        0.15563    0.08190    0.55731    1.000
    N728     N        0.11976    0.06636    0.49961    1.000
    N729     N        0.12402    0.06767    0.62192    1.000
    N730     N        0.12573    0.13320    0.52937    1.000
    N731     N        0.14820    0.20024    0.54105    1.000
    Si732    Si       0.12824    0.23882    0.53607    1.000
    Si733    Si       0.14218    0.16003    0.55907    1.000
    N734     N        0.11488    0.24858    0.49549    1.000
    N735     N        0.11716    0.02442    0.70393    1.000
    Si736    Si       0.11534    0.12033    0.72491    1.000
    Si737    Si       0.11822    0.10324    0.64832    1.000
    N738     N        0.11401    0.09303    0.68999    1.000
    Si739    Si       0.16248    0.01520    0.70496    1.000
    N740     N        0.16711    0.01642    0.66289    1.000
    N741     N        0.14230    0.15091    0.71096    1.000
    N742     N        0.14564    0.24686    0.72362    1.000
    Si743    Si       0.13831    0.17168    0.67193    1.000
    N744     N        0.14489    0.13712    0.64286    1.000
    N745     N        0.13131    0.11160    0.83738    1.000
    N746     N        0.13070    0.10486    0.76177    1.000
    Si747    Si       0.11997    0.07439    0.86104    1.000
    Si748    Si       0.11638    0.01710    0.81065    1.000
    Si749    Si       0.13189    0.12804    0.79826    1.000
    N750     N        0.15997    0.01254    0.80340    1.000
    N751     N        0.14998    0.21672    0.79148    1.000
    Si752    Si       0.16050    0.25565    0.81111    1.000
    Si753    Si       0.15098    0.21220    0.86601    1.000
    N754     N        0.10687    0.20571    0.85737    1.000
    Si755    Si       0.16811    0.13570    0.85315    1.000
    N756     N        0.15683    0.05903    0.87719    1.000
    Si757    Si       0.15436    0.02525    0.90357    1.000
    N758     N        0.11415    0.02319    0.92106    1.000
    N759     N        0.11817    0.07802    0.96278    1.000
    N760     N        0.12880    0.00433    0.98390    1.000
    N761     N        0.14797    0.14227    0.89208    1.000
    N762     N        0.15096    0.21438    0.90938    1.000
    Si763    Si       0.14849    0.17239    0.92180    1.000
    N764     N        0.11190    0.24875    0.96024    1.000
    Si765    Si       0.14067    0.25347    0.92790    1.000
    N766     N        0.13416    0.27291    0.08033    1.000
    N767     N        0.15031    0.28217    0.00987    1.000
    Si768    Si       0.12006    0.37831    0.10793    1.000
    Si769    Si       0.10966    0.26914    0.99862    1.000
    Si770    Si       0.11047    0.29375    0.10977    1.000
    N771     N        0.11046    0.36149    0.02208    1.000
    N772     N        0.10908    0.46701    0.09468    1.000
    N773     N        0.14613    0.38983    0.07488    1.000
    Si774    Si       0.12516    0.39975    0.03885    1.000
    Si775    Si       0.12721    0.50085    0.00743    1.000
    N776     N        0.15594    0.40132    0.00703    1.000
    N777     N        0.15668    0.47291    0.02411    1.000
    Si778    Si       0.16522    0.30937    0.20763    1.000
    N779     N        0.13920    0.27455    0.21393    1.000
    N780     N        0.12361    0.27749    0.14667    1.000
    N781     N        0.15087    0.34934    0.21769    1.000
    N782     N        0.14147    0.37406    0.14752    1.000
    N783     N        0.11775    0.43803    0.15566    1.000
    Si784    Si       0.13277    0.47639    0.17021    1.000
    N785     N        0.15542    0.41436    0.20997    1.000
    Si786    Si       0.12787    0.40293    0.17685    1.000
    N787     N        0.14844    0.30967    0.28003    1.000
    Si788    Si       0.12503    0.34682    0.29133    1.000
    Si789    Si       0.12566    0.27127    0.28324    1.000
    Si790    Si       0.11513    0.30056    0.35409    1.000
    N791     N        0.11958    0.26655    0.32738    1.000
    N792     N        0.11213    0.33985    0.33295    1.000
    N793     N        0.14065    0.38663    0.28255    1.000
    Si794    Si       0.16126    0.46632    0.28908    1.000
    N795     N        0.12847    0.44636    0.31236    1.000
    N796     N        0.12541    0.50163    0.36349    1.000
    Si797    Si       0.10897    0.41558    0.29026    1.000
    N798     N        0.14591    0.47238    0.24860    1.000
    Si799    Si       0.10858    0.46567    0.34513    1.000
    N800     N        0.14898    0.30809    0.37844    1.000
    N801     N        0.11170    0.34732    0.42840    1.000
    Si802    Si       0.12430    0.28776    0.48150    1.000
    Si803    Si       0.14624    0.34402    0.40491    1.000
    N804     N        0.11455    0.28066    0.43968    1.000
    N805     N        0.15104    0.37970    0.38220    1.000
    N806     N        0.11883    0.38312    0.49477    1.000
    N807     N        0.16414    0.30458    0.49262    1.000
    Si808    Si       0.13295    0.41624    0.39234    1.000
    N809     N        0.15003    0.45014    0.49684    1.000
    Si810    Si       0.14839    0.48752    0.40147    1.000
    N811     N        0.16150    0.44904    0.39037    1.000
    N812     N        0.13561    0.48477    0.44222    1.000
    N813     N        0.12480    0.41576    0.43462    1.000
    Si814    Si       0.15239    0.44370    0.45469    1.000
    N815     N        0.13609    0.32574    0.60565    1.000
    Si816    Si       0.13294    0.31000    0.56665    1.000
    N817     N        0.14962    0.27424    0.55001    1.000
    N818     N        0.14831    0.34321    0.54511    1.000
    Si819    Si       0.14638    0.37603    0.57648    1.000
    Si820    Si       0.14452    0.34837    0.50331    1.000
    Si821    Si       0.12902    0.41995    0.51697    1.000
    N822     N        0.15525    0.40853    0.54866    1.000
    N823     N        0.15279    0.49747    0.61438    1.000
    N824     N        0.15051    0.27678    0.66424    1.000
    N825     N        0.11550    0.36648    0.65605    1.000
    Si826    Si       0.15727    0.37502    0.64908    1.000
    N827     N        0.11173    0.32078    0.70784    1.000
    Si828    Si       0.16515    0.30415    0.63294    1.000
    Si829    Si       0.11093    0.29055    0.67710    1.000
    N830     N        0.12301    0.38990    0.72006    1.000
    Si831    Si       0.12320    0.47792    0.63707    1.000
    N832     N        0.12102    0.47826    0.67898    1.000
    Si833    Si       0.14504    0.48226    0.71683    1.000
    Si834    Si       0.16381    0.40655    0.71422    1.000
    N835     N        0.12599    0.27752    0.82784    1.000
    N836     N        0.15542    0.32767    0.76507    1.000
    Si837    Si       0.13324    0.29599    0.86704    1.000
    Si838    Si       0.11667    0.31703    0.75035    1.000
    N839     N        0.13764    0.39696    0.78750    1.000
    N840     N        0.14644    0.46898    0.78646    1.000
    N841     N        0.14975    0.44195    0.84976    1.000
    Si842    Si       0.15399    0.43100    0.80781    1.000
    Si843    Si       0.11134    0.49283    0.78168    1.000
    Si844    Si       0.10675    0.38596    0.75968    1.000
    N845     N        0.11689    0.26407    0.89072    1.000
    N846     N        0.11523    0.33221    0.88462    1.000
    Si847    Si       0.13492    0.35678    0.91341    1.000
    N848     N        0.11942    0.35406    0.95374    1.000
    Si849    Si       0.14279    0.36338    0.99087    1.000
    N850     N        0.16374    0.28773    0.93997    1.000
    Si851    Si       0.12049    0.50128    0.89245    1.000
    N852     N        0.14228    0.39900    0.90183    1.000
    Si853    Si       0.12091    0.42964    0.87856    1.000
    Si854    Si       0.12367    0.45054    0.94798    1.000
    N855     N        0.11508    0.46170    0.90735    1.000
    N856     N        0.16133    0.50392    0.87913    1.000
    N857     N        0.16468    0.45236    0.95696    1.000
    N858     N        0.15315    0.57886    0.05331    1.000
    N859     N        0.11151    0.54432    0.09866    1.000
    Si860    Si       0.11289    0.57801    0.07175    1.000
    Si861    Si       0.16621    0.55804    0.01782    1.000
    Si862    Si       0.12788    0.50361    0.09746    1.000
    N863     N        0.15875    0.73701    0.09577    1.000
    Si864    Si       0.11911    0.71828    0.09702    1.000
    N865     N        0.13015    0.67971    0.07955    1.000
    Si866    Si       0.13428    0.64507    0.10881    1.000
    Si867    Si       0.14799    0.67254    0.03740    1.000
    N868     N        0.11511    0.66206    0.01169    1.000
    Si869    Si       0.15222    0.73807    0.99869    1.000
    N870     N        0.16697    0.71209    0.02922    1.000
    N871     N        0.13089    0.58194    0.16143    1.000
    N872     N        0.14015    0.54464    0.23652    1.000
    Si873    Si       0.11440    0.54804    0.14242    1.000
    N874     N        0.13641    0.50814    0.14160    1.000
    N875     N        0.12422    0.64810    0.15428    1.000
    Si876    Si       0.16836    0.69157    0.21330    1.000
    N877     N        0.11125    0.68723    0.20863    1.000
    Si878    Si       0.12481    0.68929    0.16530    1.000
    N879     N        0.15589    0.65971    0.24401    1.000
    Si880    Si       0.15990    0.75134    0.17600    1.000
    N881     N        0.16254    0.70972    0.17031    1.000
    N882     N        0.12636    0.75478    0.20417    1.000
    Si883    Si       0.11270    0.65629    0.23963    1.000
    Si884    Si       0.14029    0.58263    0.30513    1.000
    N885     N        0.12607    0.61831    0.32504    1.000
    N886     N        0.15824    0.56049    0.33704    1.000
    Si887    Si       0.14671    0.65717    0.33411    1.000
    N888     N        0.12058    0.72505    0.26527    1.000
    N889     N        0.12109    0.69122    0.32962    1.000
    Si890    Si       0.16091    0.73888    0.27224    1.000
    N891     N        0.12098    0.56018    0.40816    1.000
    Si892    Si       0.12574    0.51657    0.46828    1.000
    N893     N        0.16034    0.54508    0.46005    1.000
    Si894    Si       0.15394    0.58241    0.48242    1.000
    N895     N        0.11067    0.59821    0.46721    1.000
    Si896    Si       0.16376    0.55626    0.41874    1.000
    Si897    Si       0.13091    0.74389    0.41019    1.000
    Si898    Si       0.11127    0.66075    0.40390    1.000
    Si899    Si       0.11777    0.69255    0.46609    1.000
    N900     N        0.14095    0.66779    0.43731    1.000
    N901     N        0.14695    0.65662    0.37716    1.000
    N902     N        0.10594    0.72258    0.43883    1.000
    N903     N        0.14765    0.58892    0.52364    1.000
    Si904    Si       0.12765    0.53524    0.61165    1.000
    N905     N        0.13215    0.61648    0.58899    1.000
    N906     N        0.13201    0.55068    0.57052    1.000
    Si907    Si       0.11372    0.59041    0.55222    1.000
    N908     N        0.13237    0.51340    0.51253    1.000
    Si909    Si       0.10537    0.52606    0.54291    1.000
    N910     N        0.12531    0.68592    0.56223    1.000
    Si911    Si       0.14686    0.69211    0.52524    1.000
    Si912    Si       0.11251    0.72409    0.57945    1.000
    N913     N        0.12183    0.71863    0.50042    1.000
    N914     N        0.14101    0.75417    0.56993    1.000
    N915     N        0.14284    0.65890    0.49789    1.000
    Si916    Si       0.10887    0.64923    0.57340    1.000
    Si917    Si       0.10551    0.63343    0.49600    1.000
    Si918    Si       0.10817    0.60229    0.70683    1.000
    Si919    Si       0.12336    0.53635    0.74246    1.000
    N920     N        0.16012    0.52300    0.72327    1.000
    N921     N        0.13874    0.56064    0.64188    1.000
    N922     N        0.15201    0.59842    0.70429    1.000
    N923     N        0.11610    0.71600    0.62308    1.000
    N924     N        0.11499    0.68276    0.67526    1.000
    N925     N        0.13542    0.69831    0.74262    1.000
    Si926    Si       0.14756    0.70663    0.65513    1.000
    N927     N        0.16313    0.74563    0.66641    1.000
    Si928    Si       0.10512    0.68057    0.71644    1.000
    N929     N        0.14808    0.59243    0.80475    1.000
    N930     N        0.11841    0.53476    0.78579    1.000
    Si931    Si       0.11042    0.57226    0.80754    1.000
    Si932    Si       0.15585    0.63355    0.79323    1.000
    N933     N        0.14034    0.69305    0.84003    1.000
    Si934    Si       0.15090    0.73213    0.82814    1.000
    N935     N        0.11642    0.65028    0.79764    1.000
    N936     N        0.11155    0.75586    0.83860    1.000
    N937     N        0.13201    0.59329    0.93500    1.000
    Si938    Si       0.13943    0.55173    0.94931    1.000
    N939     N        0.13918    0.53769    0.99037    1.000
    N940     N        0.11181    0.52862    0.92607    1.000
    N941     N        0.16905    0.57760    0.87487    1.000
    Si942    Si       0.12663    0.67500    0.97005    1.000
    Si943    Si       0.11238    0.72868    0.92652    1.000
    N944     N        0.15631    0.70576    0.92188    1.000
    N945     N        0.12041    0.71819    0.97395    1.000
    N946     N        0.16410    0.65493    0.96704    1.000
    N947     N        0.13928    0.83657    0.02100    1.000
    N948     N        0.13211    0.86584    0.07921    1.000
    Si949    Si       0.15184    0.84077    0.10912    1.000
    N950     N        0.13608    0.76963    0.02436    1.000
    Si951    Si       0.16031    0.80353    0.03756    1.000
    N952     N        0.16006    0.80700    0.08095    1.000
    Si953    Si       0.10841    0.84678    0.04802    1.000
    N954     N        0.14785    0.96922    0.04423    1.000
    Si955    Si       0.14201    0.90782    0.08489    1.000
    N956     N        0.12889    0.99271    0.11137    1.000
    Si957    Si       0.14647    0.00189    0.07389    1.000
    Si958    Si       0.10927    0.94951    0.04016    1.000
    N959     N        0.15583    0.78582    0.14612    1.000
    N960     N        0.13255    0.84985    0.14565    1.000
    N961     N        0.14117    0.82147    0.20966    1.000
    Si962    Si       0.12912    0.81436    0.16716    1.000
    Si963    Si       0.16154    0.85232    0.22938    1.000
    Si964    Si       0.10958    0.79319    0.22084    1.000
    N965     N        0.13139    0.88067    0.24026    1.000
    N966     N        0.12991    0.00976    0.18481    1.000
    N967     N        0.15035    0.91152    0.12827    1.000
    N968     N        0.14278    0.92076    0.18724    1.000
    N969     N        0.13999    0.95946    0.24057    1.000
    Si970    Si       0.15165    0.00051    0.22274    1.000
    Si971    Si       0.12651    0.89081    0.15979    1.000
    Si972    Si       0.15142    0.00749    0.14659    1.000
    N973     N        0.14850    0.84954    0.29722    1.000
    Si974    Si       0.14857    0.85027    0.33936    1.000
    N975     N        0.14795    0.78102    0.28028    1.000
    N976     N        0.15434    0.80890    0.35013    1.000
    N977     N        0.11405    0.87460    0.34742    1.000
    Si978    Si       0.10518    0.78283    0.29125    1.000
    Si979    Si       0.12047    0.88113    0.28250    1.000
    N980     N        0.15139    0.98862    0.29802    1.000
    N981     N        0.12566    0.92102    0.30169    1.000
    Si982    Si       0.15207    0.94902    0.28261    1.000
    Si983    Si       0.11669    0.91765    0.34285    1.000
    N984     N        0.14311    0.85469    0.41594    1.000
    Si985    Si       0.12117    0.81862    0.41581    1.000
    N986     N        0.14689    0.78412    0.41163    1.000
    N987     N        0.12193    0.87747    0.48285    1.000
    Si988    Si       0.11541    0.82781    0.49416    1.000
    N989     N        0.13635    0.94229    0.37363    1.000
    Si990    Si       0.12548    0.88704    0.43981    1.000
    N991     N        0.11406    0.99965    0.47489    1.000
    N992     N        0.15806    0.91262    0.44889    1.000
    Si993    Si       0.14733    0.91345    0.49168    1.000
    Si994    Si       0.13988    0.79162    0.54730    1.000
    N995     N        0.12632    0.82563    0.56874    1.000
    Si996    Si       0.15348    0.85805    0.57984    1.000
    N997     N        0.15771    0.82405    0.50239    1.000
    N998     N        0.16502    0.84454    0.61919    1.000
    N999     N        0.14333    0.90048    0.57407    1.000
    N1000    N        0.15677    0.96461    0.57404    1.000
    Si1001   Si       0.11657    0.98251    0.57924    1.000
    N1002    N        0.11417    0.93606    0.51151    1.000
    N1003    N        0.10853    0.00105    0.54111    1.000
    N1004    N        0.15915    0.81278    0.68230    1.000
    Si1005   Si       0.14828    0.77323    0.69495    1.000
    N1006    N        0.12415    0.86985    0.67097    1.000
    Si1007   Si       0.13802    0.83268    0.65031    1.000
    N1008    N        0.10730    0.84339    0.73619    1.000
    Si1009   Si       0.16141    0.90124    0.68033    1.000
    N1010    N        0.15280    0.98426    0.73961    1.000
    Si1011   Si       0.11323    0.89750    0.63880    1.000
    N1012    N        0.15311    0.91534    0.63735    1.000
    N1013    N        0.13851    0.93039    0.70352    1.000
    Si1014   Si       0.10986    0.99605    0.73682    1.000
    N1015    N        0.15136    0.87069    0.82622    1.000
    Si1016   Si       0.11950    0.84361    0.83410    1.000
    N1017    N        0.14144    0.81585    0.86031    1.000
    Si1018   Si       0.11657    0.81597    0.76627    1.000
    N1019    N        0.15865    0.81764    0.77937    1.000
    Si1020   Si       0.13622    0.77499    0.87204    1.000
    Si1021   Si       0.14859    0.96769    0.84632    1.000
    N1022    N        0.11035    0.97868    0.83004    1.000
    N1023    N        0.13837    0.92809    0.86903    1.000
    Si1024   Si       0.13237    0.83574    0.97757    1.000
    N1025    N        0.11908    0.77131    0.91023    1.000
    N1026    N        0.11999    0.87706    0.96421    1.000
    N1027    N        0.12898    0.94719    0.94271    1.000
    Si1028   Si       0.10922    0.98702    0.94481    1.000
    Si1029   Si       0.11237    0.93681    0.90320    1.000
    Si1030   Si       0.13704    0.91646    0.97433    1.000
    Si1031   Si       0.18818    0.05458    0.10632    1.000
    N1032    N        0.18614    0.01718    0.08254    1.000
    N1033    N        0.17889    0.05651    0.00797    1.000
    N1034    N        0.17242    0.08044    0.07576    1.000
    N1035    N        0.22266    0.07474    0.12282    1.000
    N1036    N        0.19787    0.25150    0.04790    1.000
    Si1037   Si       0.21081    0.15469    0.07988    1.000
    N1038    N        0.17867    0.15175    0.04812    1.000
    N1039    N        0.19229    0.20035    0.00642    1.000
    Si1040   Si       0.18564    0.20602    0.04997    1.000
    N1041    N        0.18281    0.15542    0.11510    1.000
    N1042    N        0.21818    0.19907    0.07765    1.000
    Si1043   Si       0.17398    0.15976    0.99977    1.000
    Si1044   Si       0.22268    0.24573    0.09248    1.000
    Si1045   Si       0.21047    0.05290    0.22446    1.000
    N1046    N        0.18129    0.08451    0.23468    1.000
    Si1047   Si       0.21156    0.08579    0.16478    1.000
    N1048    N        0.17300    0.10541    0.16643    1.000
    N1049    N        0.19299    0.01367    0.21653    1.000
    N1050    N        0.19574    0.21779    0.23736    1.000
    Si1051   Si       0.18996    0.14225    0.15540    1.000
    Si1052   Si       0.20989    0.18505    0.21289    1.000
    N1053    N        0.18199    0.17415    0.18190    1.000
    N1054    N        0.18242    0.23761    0.16474    1.000
    N1055    N        0.21657    0.14928    0.23852    1.000
    N1056    N        0.19461    0.11753    0.29073    1.000
    Si1057   Si       0.20601    0.07492    0.29206    1.000
    Si1058   Si       0.20974    0.09667    0.36407    1.000
    N1059    N        0.17243    0.05473    0.30609    1.000
    Si1060   Si       0.18192    0.12817    0.24978    1.000
    Si1061   Si       0.17973    0.01371    0.31907    1.000
    N1062    N        0.22832    0.05169    0.26343    1.000
    N1063    N        0.19700    0.13785    0.35617    1.000
    Si1064   Si       0.20342    0.15231    0.31522    1.000
    N1065    N        0.18317    0.18942    0.30154    1.000
    Si1066   Si       0.20111    0.22274    0.28057    1.000
    N1067    N        0.16878    0.08040    0.37507    1.000
    N1068    N        0.20878    0.03498    0.41561    1.000
    Si1069   Si       0.17129    0.03905    0.39170    1.000
    N1070    N        0.17813    0.10554    0.49099    1.000
    Si1071   Si       0.18469    0.15785    0.39355    1.000
    N1072    N        0.20571    0.19626    0.39489    1.000
    Si1073   Si       0.18448    0.23335    0.39812    1.000
    N1074    N        0.19869    0.13969    0.43268    1.000
    N1075    N        0.18682    0.18233    0.48496    1.000
    N1076    N        0.17027    0.23526    0.43960    1.000
    Si1077   Si       0.17286    0.14364    0.46786    1.000
    Si1078   Si       0.19871    0.22299    0.46891    1.000
    N1079    N        0.17668    0.02572    0.59333    1.000
    Si1080   Si       0.21238    0.02049    0.51181    1.000
    N1081    N        0.16962    0.01900    0.52159    1.000
    Si1082   Si       0.21896    0.09675    0.49638    1.000
    Si1083   Si       0.18914    0.20196    0.52646    1.000
    N1084    N        0.17887    0.15711    0.58270    1.000
    N1085    N        0.19303    0.24098    0.50739    1.000
    Si1086   Si       0.21838    0.17924    0.58915    1.000
    N1087    N        0.18744    0.08840    0.61962    1.000
    N1088    N        0.17800    0.04853    0.72913    1.000
    Si1089   Si       0.21295    0.07437    0.71824    1.000
    N1090    N        0.19309    0.10935    0.73584    1.000
    Si1091   Si       0.22257    0.07157    0.63758    1.000
    N1092    N        0.22122    0.08722    0.67861    1.000
    Si1093   Si       0.19263    0.00830    0.62816    1.000
    Si1094   Si       0.21499    0.18675    0.66063    1.000
    N1095    N        0.21780    0.21080    0.62024    1.000
    Si1096   Si       0.18085    0.13216    0.61872    1.000
    Si1097   Si       0.21986    0.25499    0.62642    1.000
    N1098    N        0.17214    0.20013    0.66810    1.000
    N1099    N        0.20725    0.23663    0.71987    1.000
    Si1100   Si       0.18161    0.15078    0.72782    1.000
    N1101    N        0.21655    0.16007    0.69883    1.000
    N1102    N        0.21540    0.14861    0.63640    1.000
    N1103    N        0.19280    0.07239    0.79045    1.000
    N1104    N        0.20005    0.10510    0.84653    1.000
    Si1105   Si       0.20688    0.11172    0.80285    1.000
    Si1106   Si       0.20035    0.03080    0.80456    1.000
    Si1107   Si       0.19842    0.06485    0.86335    1.000
    N1108    N        0.22318    0.03559    0.84066    1.000
    Si1109   Si       0.16747    0.08092    0.75708    1.000
    Si1110   Si       0.18072    0.18515    0.79752    1.000
    N1111    N        0.17906    0.24122    0.84937    1.000
    Si1112   Si       0.21157    0.20876    0.84937    1.000
    N1113    N        0.17341    0.14100    0.79805    1.000
    N1114    N        0.17411    0.18012    0.84636    1.000
    N1115    N        0.22004    0.20284    0.80820    1.000
    Si1116   Si       0.17647    0.22954    0.75257    1.000
    N1117    N        0.18777    0.18660    0.75137    1.000
    Si1118   Si       0.16948    0.02330    0.98021    1.000
    N1119    N        0.20054    0.12180    0.99086    1.000
    N1120    N        0.17963    0.02809    0.93821    1.000
    Si1121   Si       0.22164    0.03654    0.93099    1.000
    Si1122   Si       0.21185    0.08230    0.00104    1.000
    Si1123   Si       0.21354    0.14520    0.95615    1.000
    N1124    N        0.17503    0.16510    0.95432    1.000
    N1125    N        0.19002    0.31994    0.05704    1.000
    Si1126   Si       0.21037    0.31855    0.09713    1.000
    Si1127   Si       0.21107    0.34431    0.02430    1.000
    N1128    N        0.19808    0.27935    0.10994    1.000
    N1129    N        0.20187    0.35849    0.11694    1.000
    N1130    N        0.21648    0.37985    0.05008    1.000
    Si1131   Si       0.16647    0.28239    0.05215    1.000
    Si1132   Si       0.18782    0.38664    0.08238    1.000
    N1133    N        0.20364    0.41915    0.10789    1.000
    Si1134   Si       0.18477    0.49430    0.05212    1.000
    N1135    N        0.21593    0.46526    0.05992    1.000
    Si1136   Si       0.17336    0.44112    0.99819    1.000
    N1137    N        0.21558    0.44224    0.99407    1.000
    N1138    N        0.17700    0.31190    0.16575    1.000
    Si1139   Si       0.17903    0.35406    0.15308    1.000
    N1140    N        0.19784    0.30055    0.23428    1.000
    N1141    N        0.20597    0.37359    0.18289    1.000
    Si1142   Si       0.18240    0.38118    0.21700    1.000
    Si1143   Si       0.16818    0.27437    0.14382    1.000
    Si1144   Si       0.21872    0.46307    0.17454    1.000
    N1145    N        0.21874    0.44580    0.22087    1.000
    N1146    N        0.21262    0.47909    0.13285    1.000
    Si1147   Si       0.17457    0.45197    0.22088    1.000
    N1148    N        0.17425    0.47295    0.18438    1.000
    Si1149   Si       0.19094    0.30352    0.27696    1.000
    N1150    N        0.20801    0.33652    0.36393    1.000
    N1151    N        0.19856    0.26461    0.29413    1.000
    Si1152   Si       0.19064    0.37789    0.36639    1.000
    N1153    N        0.20902    0.38124    0.25075    1.000
    N1154    N        0.19113    0.38089    0.32389    1.000
    N1155    N        0.22452    0.32812    0.28956    1.000
    Si1156   Si       0.18293    0.39595    0.28447    1.000
    N1157    N        0.19091    0.43703    0.27937    1.000
    N1158    N        0.17467    0.50129    0.31148    1.000
    N1159    N        0.20760    0.26702    0.38574    1.000
    Si1160   Si       0.19367    0.32572    0.46872    1.000
    N1161    N        0.18239    0.32829    0.42537    1.000
    Si1162   Si       0.18990    0.30612    0.38715    1.000
    N1163    N        0.18506    0.36441    0.48388    1.000
    Si1164   Si       0.22204    0.38619    0.49024    1.000
    N1165    N        0.20396    0.49513    0.48827    1.000
    N1166    N        0.19380    0.44117    0.44675    1.000
    Si1167   Si       0.22290    0.45446    0.47789    1.000
    N1168    N        0.21633    0.40452    0.38458    1.000
    Si1169   Si       0.20353    0.44086    0.40305    1.000
    Si1170   Si       0.18447    0.28017    0.52339    1.000
    N1171    N        0.19146    0.28320    0.60585    1.000
    N1172    N        0.22067    0.29797    0.54147    1.000
    Si1173   Si       0.21413    0.38383    0.60509    1.000
    N1174    N        0.17170    0.38418    0.60964    1.000
    Si1175   Si       0.18882    0.49224    0.59047    1.000
    Si1176   Si       0.19451    0.42917    0.55072    1.000
    N1177    N        0.18359    0.46948    0.55291    1.000
    N1178    N        0.21253    0.42474    0.50986    1.000
    Si1179   Si       0.17000    0.48539    0.51348    1.000
    N1180    N        0.22587    0.40687    0.57024    1.000
    N1181    N        0.22006    0.27421    0.66532    1.000
    N1182    N        0.18232    0.33694    0.65874    1.000
    Si1183   Si       0.21468    0.31726    0.68094    1.000
    N1184    N        0.19198    0.30062    0.71420    1.000
    N1185    N        0.18769    0.38311    0.74052    1.000
    Si1186   Si       0.17659    0.26116    0.69670    1.000
    Si1187   Si       0.22488    0.36192    0.73684    1.000
    Si1188   Si       0.20134    0.43418    0.65144    1.000
    N1189    N        0.17316    0.44805    0.72180    1.000
    N1190    N        0.17215    0.40801    0.67194    1.000
    N1191    N        0.22065    0.50017    0.71998    1.000
    N1192    N        0.21169    0.46643    0.62179    1.000
    Si1193   Si       0.21441    0.45619    0.72977    1.000
    N1194    N        0.18863    0.35683    0.81637    1.000
    Si1195   Si       0.20863    0.27300    0.86144    1.000
    Si1196   Si       0.19053    0.30268    0.75774    1.000
    N1197    N        0.18676    0.26756    0.77963    1.000
    N1198    N        0.22231    0.33138    0.76664    1.000
    Si1199   Si       0.22310    0.33179    0.81041    1.000
    Si1200   Si       0.16884    0.36774    0.77891    1.000
    Si1201   Si       0.21766    0.39080    0.83177    1.000
    N1202    N        0.19560    0.41961    0.80643    1.000
    N1203    N        0.20947    0.48128    0.83521    1.000
    Si1204   Si       0.18005    0.46790    0.86400    1.000
    N1205    N        0.17543    0.30210    0.87452    1.000
    N1206    N        0.17998    0.35375    0.91930    1.000
    Si1207   Si       0.19306    0.30898    0.91531    1.000
    Si1208   Si       0.20359    0.35724    0.95851    1.000
    Si1209   Si       0.18150    0.29420    0.98027    1.000
    N1210    N        0.17871    0.33912    0.99111    1.000
    N1211    N        0.21178    0.26124    0.98202    1.000
    N1212    N        0.22121    0.31609    0.95175    1.000
    N1213    N        0.20288    0.44566    0.89617    1.000
    N1214    N        0.21707    0.39253    0.87543    1.000
    N1215    N        0.20811    0.40264    0.94537    1.000
    Si1216   Si       0.18784    0.39814    0.90718    1.000
    Si1217   Si       0.20583    0.45093    0.94150    1.000
    N1218    N        0.19709    0.52851    0.02882    1.000
    Si1219   Si       0.18292    0.61009    0.06259    1.000
    Si1220   Si       0.21222    0.62891    0.11578    1.000
    N1221    N        0.22220    0.60231    0.08129    1.000
    N1222    N        0.16956    0.50751    0.09079    1.000
    N1223    N        0.17295    0.63159    0.10001    1.000
    N1224    N        0.17672    0.64055    0.03293    1.000
    Si1225   Si       0.18765    0.72299    0.06608    1.000
    N1226    N        0.21345    0.68965    0.07528    1.000
    Si1227   Si       0.22491    0.53457    0.19082    1.000
    N1228    N        0.19149    0.54074    0.16220    1.000
    N1229    N        0.21306    0.54128    0.23393    1.000
    N1230    N        0.17902    0.59590    0.21050    1.000
    Si1231   Si       0.17510    0.58284    0.16747    1.000
    N1232    N        0.21055    0.60185    0.15017    1.000
    Si1233   Si       0.17697    0.56435    0.24051    1.000
    Si1234   Si       0.18126    0.50828    0.13354    1.000
    N1235    N        0.20172    0.66397    0.20195    1.000
    N1236    N        0.18540    0.72208    0.23841    1.000
    Si1237   Si       0.18817    0.63333    0.22998    1.000
    Si1238   Si       0.22219    0.73536    0.21601    1.000
    Si1239   Si       0.19911    0.62263    0.29505    1.000
    Si1240   Si       0.19409    0.57945    0.35158    1.000
    N1241    N        0.21511    0.53729    0.35175    1.000
    N1242    N        0.22049    0.60212    0.32787    1.000
    N1243    N        0.17238    0.59020    0.27662    1.000
    Si1244   Si       0.17118    0.52188    0.34907    1.000
    N1245    N        0.18615    0.65918    0.31510    1.000
    N1246    N        0.18874    0.72879    0.30589    1.000
    Si1247   Si       0.21013    0.69308    0.31833    1.000
    N1248    N        0.22402    0.69991    0.36086    1.000
    Si1249   Si       0.20384    0.53604    0.47352    1.000
    N1250    N        0.17612    0.51999    0.39621    1.000
    Si1251   Si       0.20575    0.61291    0.42322    1.000
    N1252    N        0.18627    0.58742    0.39487    1.000
    N1253    N        0.18132    0.60916    0.46024    1.000
    Si1254   Si       0.22155    0.52102    0.39554    1.000
    N1255    N        0.22352    0.54207    0.43527    1.000
    N1256    N        0.20260    0.68435    0.48076    1.000
    Si1257   Si       0.20820    0.72859    0.39060    1.000
    N1258    N        0.20390    0.65796    0.42472    1.000
    Si1259   Si       0.17063    0.67690    0.40586    1.000
    Si1260   Si       0.17401    0.65402    0.46506    1.000
    N1261    N        0.16536    0.71881    0.39952    1.000
    N1262    N        0.19803    0.59774    0.56989    1.000
    N1263    N        0.19608    0.53273    0.57654    1.000
    N1264    N        0.19702    0.55782    0.51175    1.000
    Si1265   Si       0.17363    0.56365    0.55035    1.000
    Si1266   Si       0.17400    0.62022    0.59960    1.000
    N1267    N        0.19145    0.73138    0.60630    1.000
    N1268    N        0.19871    0.65697    0.59172    1.000
    N1269    N        0.18196    0.71381    0.53585    1.000
    Si1270   Si       0.18757    0.74680    0.56495    1.000
    Si1271   Si       0.20822    0.69150    0.61556    1.000
    Si1272   Si       0.21831    0.71017    0.51238    1.000
    N1273    N        0.17924    0.61486    0.64234    1.000
    N1274    N        0.20215    0.55997    0.67882    1.000
    Si1275   Si       0.20038    0.53791    0.71803    1.000
    Si1276   Si       0.18657    0.60642    0.73008    1.000
    N1277    N        0.21359    0.63051    0.70474    1.000
    Si1278   Si       0.16549    0.58232    0.66576    1.000
    N1279    N        0.20736    0.57158    0.74790    1.000
    N1280    N        0.18584    0.68262    0.65384    1.000
    Si1281   Si       0.20629    0.64414    0.66233    1.000
    Si1282   Si       0.20805    0.66283    0.73573    1.000
    N1283    N        0.20011    0.70528    0.72572    1.000
    Si1284   Si       0.19808    0.75336    0.64219    1.000
    Si1285   Si       0.17811    0.59437    0.83737    1.000
    N1286    N        0.21574    0.58343    0.81778    1.000
    N1287    N        0.22237    0.53791    0.87134    1.000
    N1288    N        0.17805    0.63978    0.75750    1.000
    N1289    N        0.18003    0.63717    0.83205    1.000
    Si1290   Si       0.17242    0.66780    0.86152    1.000
    Si1291   Si       0.21503    0.73811    0.86449    1.000
    N1292    N        0.20410    0.69503    0.86269    1.000
    N1293    N        0.17220    0.75380    0.85945    1.000
    N1294    N        0.16865    0.74132    0.79094    1.000
    Si1295   Si       0.16882    0.72239    0.74919    1.000
    N1296    N        0.21551    0.59492    0.92055    1.000
    N1297    N        0.17885    0.54545    0.93163    1.000
    N1298    N        0.18650    0.58807    0.99073    1.000
    Si1299   Si       0.20725    0.56762    0.95474    1.000
    Si1300   Si       0.18281    0.53991    0.88771    1.000
    Si1301   Si       0.16844    0.60219    0.91068    1.000
    Si1302   Si       0.18973    0.63203    0.99204    1.000
    N1303    N        0.17808    0.75352    0.96712    1.000
    Si1304   Si       0.19315    0.72634    0.93642    1.000
    N1305    N        0.21540    0.68848    0.94258    1.000
    Si1306   Si       0.17846    0.66922    0.92897    1.000
    N1307    N        0.22002    0.74561    0.90844    1.000
    N1308    N        0.17158    0.64228    0.89807    1.000
    N1309    N        0.19650    0.79656    0.01597    1.000
    N1310    N        0.19295    0.85559    0.11517    1.000
    Si1311   Si       0.17636    0.77616    0.10818    1.000
    N1312    N        0.21512    0.75860    0.07005    1.000
    Si1313   Si       0.22314    0.99453    0.07433    1.000
    N1314    N        0.21682    0.95933    0.04692    1.000
    N1315    N        0.18280    0.90665    0.07212    1.000
    Si1316   Si       0.20329    0.89685    0.11309    1.000
    Si1317   Si       0.18258    0.96045    0.02031    1.000
    Si1318   Si       0.22045    0.91755    0.05471    1.000
    N1319    N        0.21851    0.79104    0.12569    1.000
    N1320    N        0.20035    0.76211    0.18827    1.000
    N1321    N        0.18818    0.87760    0.20782    1.000
    Si1322   Si       0.22430    0.79564    0.16992    1.000
    N1323    N        0.19436    0.83009    0.25063    1.000
    N1324    N        0.18061    0.97822    0.15811    1.000
    N1325    N        0.20876    0.91434    0.15244    1.000
    Si1326   Si       0.22139    0.90460    0.19235    1.000
    Si1327   Si       0.17138    0.93545    0.15786    1.000
    N1328    N        0.20167    0.94244    0.20748    1.000
    Si1329   Si       0.21052    0.98247    0.19197    1.000
    Si1330   Si       0.16498    0.91968    0.22504    1.000
    N1331    N        0.21014    0.80116    0.30748    1.000
    N1332    N        0.17929    0.87358    0.35556    1.000
    Si1333   Si       0.17306    0.81492    0.28699    1.000
    N1334    N        0.20142    0.76213    0.36631    1.000
    Si1335   Si       0.21210    0.76166    0.32506    1.000
    N1336    N        0.17292    0.00902    0.36033    1.000
    N1337    N        0.20290    0.94539    0.34816    1.000
    N1338    N        0.18070    0.92092    0.26632    1.000
    Si1339   Si       0.20846    0.90464    0.36223    1.000
    N1340    N        0.21998    0.99825    0.30699    1.000
    Si1341   Si       0.17642    0.79289    0.38255    1.000
    N1342    N        0.20392    0.82275    0.39532    1.000
    Si1343   Si       0.18417    0.86050    0.39801    1.000
    Si1344   Si       0.21407    0.99358    0.43328    1.000
    Si1345   Si       0.17249    0.96737    0.37277    1.000
    N1346    N        0.21275    0.00066    0.47462    1.000
    N1347    N        0.18526    0.96641    0.41521    1.000
    Si1348   Si       0.19515    0.92841    0.43299    1.000
    N1349    N        0.20916    0.89744    0.40602    1.000
    N1350    N        0.18947    0.85740    0.55594    1.000
    Si1351   Si       0.19293    0.82536    0.52593    1.000
    N1352    N        0.18449    0.78821    0.54737    1.000
    N1353    N        0.20678    0.92046    0.58570    1.000
    N1354    N        0.18424    0.90824    0.51077    1.000
    Si1355   Si       0.20392    0.89736    0.54940    1.000
    Si1356   Si       0.17919    0.99818    0.55929    1.000
    N1357    N        0.22144    0.99755    0.54715    1.000
    Si1358   Si       0.16673    0.92926    0.59909    1.000
    Si1359   Si       0.20902    0.83628    0.62417    1.000
    N1360    N        0.21620    0.85356    0.66388    1.000
    N1361    N        0.21353    0.79402    0.63421    1.000
    Si1362   Si       0.19196    0.83692    0.69641    1.000
    N1363    N        0.17570    0.87354    0.71384    1.000
    N1364    N        0.16706    0.76344    0.73282    1.000
    N1365    N        0.22220    0.80878    0.70993    1.000
    Si1366   Si       0.21846    0.96205    0.67250    1.000
    N1367    N        0.20330    0.98695    0.70383    1.000
    Si1368   Si       0.20371    0.89622    0.73892    1.000
    N1369    N        0.20020    0.92579    0.68585    1.000
    Si1370   Si       0.17427    0.95350    0.71640    1.000
    N1371    N        0.20673    0.96754    0.63073    1.000
    N1372    N        0.20586    0.83150    0.83177    1.000
    Si1373   Si       0.17938    0.84939    0.80069    1.000
    Si1374   Si       0.17979    0.78060    0.77164    1.000
    N1375    N        0.22131    0.78846    0.77980    1.000
    Si1376   Si       0.18180    0.83183    0.86912    1.000
    N1377    N        0.20037    0.88054    0.78071    1.000
    Si1378   Si       0.20454    0.91870    0.80344    1.000
    N1379    N        0.20730    0.90597    0.84625    1.000
    Si1380   Si       0.17483    0.97703    0.77806    1.000
    N1381    N        0.21317    0.99921    0.77619    1.000
    N1382    N        0.17396    0.95049    0.81160    1.000
    N1383    N        0.19184    0.93521    0.75171    1.000
    Si1384   Si       0.16766    0.89778    0.85771    1.000
    Si1385   Si       0.18806    0.84944    0.92915    1.000
    N1386    N        0.20164    0.81438    0.90439    1.000
    Si1387   Si       0.19419    0.79171    0.97358    1.000
    N1388    N        0.17306    0.86849    0.89104    1.000
    N1389    N        0.21278    0.87752    0.95010    1.000
    N1390    N        0.16830    0.82274    0.95743    1.000
    Si1391   Si       0.20958    0.90702    0.98363    1.000
    N1392    N        0.19596    0.99066    0.99183    1.000
    N1393    N        0.16497    0.99092    0.87887    1.000
    N1394    N        0.17251    0.92341    0.99675    1.000
    N1395    N        0.24256    0.08786    0.03093    1.000
    N1396    N        0.25295    0.02022    0.05502    1.000
    Si1397   Si       0.26879    0.05796    0.05231    1.000
    Si1398   Si       0.25935    0.09526    0.11374    1.000
    N1399    N        0.24730    0.13312    0.09209    1.000
    Si1400   Si       0.27951    0.10371    0.01141    1.000
    N1401    N        0.25726    0.22838    0.00756    1.000
    N1402    N        0.25609    0.25880    0.06474    1.000
    N1403    N        0.22977    0.12725    0.16467    1.000
    N1404    N        0.23637    0.06300    0.19054    1.000
    Si1405   Si       0.27939    0.06131    0.17678    1.000
    Si1406   Si       0.27142    0.13245    0.17203    1.000
    N1407    N        0.28153    0.12512    0.21372    1.000
    N1408    N        0.24556    0.23925    0.12917    1.000
    N1409    N        0.24559    0.20161    0.19197    1.000
    Si1410   Si       0.22584    0.23333    0.16782    1.000
    Si1411   Si       0.25792    0.13961    0.24974    1.000
    Si1412   Si       0.26204    0.11005    0.31251    1.000
    N1413    N        0.27257    0.10580    0.27054    1.000
    N1414    N        0.23302    0.08008    0.32937    1.000
    Si1415   Si       0.27003    0.05575    0.33744    1.000
    Si1416   Si       0.24986    0.01599    0.28021    1.000
    N1417    N        0.28513    0.02852    0.30680    1.000
    Si1418   Si       0.26703    0.18705    0.30316    1.000
    N1419    N        0.24229    0.22114    0.29981    1.000
    N1420    N        0.24596    0.15097    0.31361    1.000
    N1421    N        0.27393    0.17780    0.25994    1.000
    N1422    N        0.26687    0.03452    0.37378    1.000
    N1423    N        0.27683    0.03960    0.43927    1.000
    N1424    N        0.23949    0.09224    0.39497    1.000
    Si1425   Si       0.23831    0.12354    0.42712    1.000
    Si1426   Si       0.24870    0.05115    0.40853    1.000
    N1427    N        0.24739    0.09793    0.46344    1.000
    Si1428   Si       0.28397    0.07462    0.46495    1.000
    N1429    N        0.26227    0.16031    0.42070    1.000
    N1430    N        0.23866    0.21953    0.45164    1.000
    Si1431   Si       0.24674    0.20034    0.41223    1.000
    N1432    N        0.26667    0.22990    0.38507    1.000
    Si1433   Si       0.27743    0.23057    0.47008    1.000
    Si1434   Si       0.26959    0.06636    0.53819    1.000
    N1435    N        0.23101    0.06027    0.51841    1.000
    N1436    N        0.23186    0.12669    0.52419    1.000
    N1437    N        0.27711    0.03832    0.56971    1.000
    N1438    N        0.25461    0.08875    0.61404    1.000
    Si1439   Si       0.26490    0.14039    0.54762    1.000
    Si1440   Si       0.26368    0.21170    0.54331    1.000
    N1441    N        0.25656    0.15510    0.58832    1.000
    N1442    N        0.27368    0.23929    0.51291    1.000
    N1443    N        0.28052    0.21767    0.58237    1.000
    N1444    N        0.22334    0.19901    0.55138    1.000
    N1445    N        0.26155    0.11269    0.72722    1.000
    N1446    N        0.24478    0.04859    0.73164    1.000
    Si1447   Si       0.24180    0.12381    0.69054    1.000
    N1448    N        0.27422    0.12766    0.66228    1.000
    N1449    N        0.23145    0.02959    0.63450    1.000
    Si1450   Si       0.28133    0.07333    0.72764    1.000
    Si1451   Si       0.25137    0.12852    0.62559    1.000
    Si1452   Si       0.22765    0.00943    0.73595    1.000
    N1453    N        0.24977    0.20986    0.68141    1.000
    Si1454   Si       0.24078    0.25217    0.69492    1.000
    Si1455   Si       0.22681    0.19601    0.72276    1.000
    N1456    N        0.26663    0.12533    0.86307    1.000
    Si1457   Si       0.26701    0.02170    0.84795    1.000
    N1458    N        0.24485    0.13004    0.79456    1.000
    Si1459   Si       0.27762    0.13626    0.82209    1.000
    N1460    N        0.24264    0.24093    0.85690    1.000
    Si1461   Si       0.25781    0.20274    0.79084    1.000
    N1462    N        0.27536    0.24293    0.79132    1.000
    Si1463   Si       0.26875    0.14526    0.75662    1.000
    N1464    N        0.25477    0.18556    0.75163    1.000
    Si1465   Si       0.26283    0.08564    0.87315    1.000
    Si1466   Si       0.25909    0.09267    0.94052    1.000
    N1467    N        0.23276    0.12454    0.92433    1.000
    N1468    N        0.23600    0.06380    0.96565    1.000
    N1469    N        0.22800    0.06232    0.89720    1.000
    N1470    N        0.27873    0.11781    0.97252    1.000
    Si1471   Si       0.22572    0.21600    0.97779    1.000
    N1472    N        0.23233    0.18639    0.88369    1.000
    Si1473   Si       0.25403    0.22459    0.89587    1.000
    N1474    N        0.24782    0.23142    0.93803    1.000
    Si1475   Si       0.25429    0.15067    0.89618    1.000
    N1476    N        0.24204    0.17491    0.96845    1.000
    N1477    N        0.25679    0.32192    0.09146    1.000
    N1478    N        0.24346    0.30864    0.02137    1.000
    Si1479   Si       0.26739    0.30133    0.05586    1.000
    Si1480   Si       0.23272    0.26296    0.02187    1.000
    Si1481   Si       0.25682    0.39152    0.05343    1.000
    N1482    N        0.26392    0.40197    0.09475    1.000
    Si1483   Si       0.24058    0.46065    0.02630    1.000
    N1484    N        0.26871    0.42551    0.02586    1.000
    N1485    N        0.26994    0.46640    0.10247    1.000
    N1486    N        0.25903    0.50033    0.02033    1.000
    Si1487   Si       0.22635    0.45540    0.10059    1.000
    Si1488   Si       0.28155    0.50677    0.09803    1.000
    Si1489   Si       0.23829    0.29304    0.22675    1.000
    N1490    N        0.25038    0.33523    0.22024    1.000
    N1491    N        0.24313    0.26764    0.19207    1.000
    N1492    N        0.26043    0.36111    0.15058    1.000
    Si1493   Si       0.24962    0.36743    0.19053    1.000
    Si1494   Si       0.28378    0.33238    0.12691    1.000
    N1495    N        0.24632    0.42680    0.15760    1.000
    Si1496   Si       0.26655    0.48427    0.22213    1.000
    Si1497   Si       0.23477    0.39440    0.12965    1.000
    N1498    N        0.24180    0.49708    0.19085    1.000
    N1499    N        0.28206    0.39330    0.20465    1.000
    Si1500   Si       0.28556    0.42674    0.17699    1.000
    N1501    N        0.26214    0.27998    0.33509    1.000
    Si1502   Si       0.24313    0.35361    0.25865    1.000
    N1503    N        0.25832    0.27876    0.26185    1.000
    N1504    N        0.25606    0.37622    0.33502    1.000
    Si1505   Si       0.24210    0.26557    0.30053    1.000
    Si1506   Si       0.22323    0.35092    0.32639    1.000
    N1507    N        0.28233    0.37036    0.27061    1.000
    Si1508   Si       0.25806    0.39816    0.37163    1.000
    N1509    N        0.24658    0.48585    0.26342    1.000
    N1510    N        0.26038    0.43306    0.29150    1.000
    N1511    N        0.26476    0.49253    0.33420    1.000
    Si1512   Si       0.27365    0.47440    0.29685    1.000
    Si1513   Si       0.22909    0.44574    0.26350    1.000
    Si1514   Si       0.27989    0.39597    0.30507    1.000
    Si1515   Si       0.25139    0.26926    0.37889    1.000
    N1516    N        0.23175    0.30770    0.47304    1.000
    N1517    N        0.26495    0.30243    0.40172    1.000
    Si1518   Si       0.26550    0.30252    0.44473    1.000
    N1519    N        0.27960    0.37350    0.39863    1.000
    Si1520   Si       0.26776    0.47820    0.37536    1.000
    N1521    N        0.25658    0.39770    0.46499    1.000
    N1522    N        0.27773    0.43495    0.37421    1.000
    N1523    N        0.26738    0.46419    0.47741    1.000
    N1524    N        0.22793    0.47557    0.39647    1.000
    N1525    N        0.24247    0.36060    0.52012    1.000
    Si1526   Si       0.24921    0.31799    0.51441    1.000
    N1527    N        0.25477    0.27671    0.60648    1.000
    Si1528   Si       0.22555    0.30296    0.58519    1.000
    N1529    N        0.22888    0.34419    0.59695    1.000
    Si1530   Si       0.26028    0.38907    0.54892    1.000
    N1531    N        0.25609    0.50720    0.58657    1.000
    N1532    N        0.28108    0.41975    0.52690    1.000
    N1533    N        0.24223    0.34499    0.69989    1.000
    Si1534   Si       0.27854    0.36718    0.70801    1.000
    N1535    N        0.26979    0.26673    0.72191    1.000
    N1536    N        0.23091    0.40489    0.63901    1.000
    Si1537   Si       0.25116    0.48552    0.62349    1.000
    N1538    N        0.25942    0.38823    0.74150    1.000
    N1539    N        0.23429    0.44755    0.68651    1.000
    Si1540   Si       0.25046    0.48623    0.69182    1.000
    Si1541   Si       0.26236    0.42290    0.66051    1.000
    N1542    N        0.27920    0.45368    0.63316    1.000
    N1543    N        0.25141    0.36188    0.82321    1.000
    Si1544   Si       0.26241    0.26492    0.82749    1.000
    N1545    N        0.22841    0.29654    0.83110    1.000
    N1546    N        0.24048    0.44874    0.76572    1.000
    N1547    N        0.24966    0.42712    0.83564    1.000
    Si1548   Si       0.27773    0.42266    0.75950    1.000
    N1549    N        0.27878    0.50321    0.84623    1.000
    Si1550   Si       0.22657    0.44977    0.80787    1.000
    Si1551   Si       0.25779    0.32514    0.98377    1.000
    N1552    N        0.27374    0.28605    0.96805    1.000
    Si1553   Si       0.23901    0.27275    0.94626    1.000
    N1554    N        0.23735    0.36613    0.98914    1.000
    N1555    N        0.22237    0.27703    0.90442    1.000
    N1556    N        0.27874    0.44264    0.89321    1.000
    N1557    N        0.27593    0.42292    0.96126    1.000
    N1558    N        0.23284    0.48407    0.93955    1.000
    Si1559   Si       0.24018    0.43091    0.87751    1.000
    Si1560   Si       0.23859    0.40899    0.97927    1.000
    N1561    N        0.25247    0.57401    0.03068    1.000
    Si1562   Si       0.23637    0.53813    0.01483    1.000
    Si1563   Si       0.26083    0.57802    0.07785    1.000
    N1564    N        0.25050    0.53614    0.09129    1.000
    Si1565   Si       0.26096    0.61161    0.01078    1.000
    N1566    N        0.27516    0.59664    0.11992    1.000
    N1567    N        0.26646    0.63820    0.04245    1.000
    Si1568   Si       0.24774    0.67620    0.04903    1.000
    N1569    N        0.24337    0.69504    0.01076    1.000
    Si1570   Si       0.24351    0.69493    0.10835    1.000
    N1571    N        0.27564    0.68967    0.08087    1.000
    N1572    N        0.25952    0.56446    0.18441    1.000
    Si1573   Si       0.25506    0.59875    0.15812    1.000
    N1574    N        0.26513    0.63265    0.18352    1.000
    N1575    N        0.24717    0.73219    0.12915    1.000
    Si1576   Si       0.23896    0.66848    0.17967    1.000
    N1577    N        0.23363    0.66213    0.13554    1.000
    Si1578   Si       0.27005    0.73575    0.16579    1.000
    N1579    N        0.24854    0.71031    0.19355    1.000
    Si1580   Si       0.26376    0.60913    0.33586    1.000
    Si1581   Si       0.25806    0.53649    0.33612    1.000
    N1582    N        0.26341    0.54830    0.29367    1.000
    Si1583   Si       0.24652    0.52997    0.25847    1.000
    N1584    N        0.28164    0.61766    0.29684    1.000
    N1585    N        0.27759    0.57320    0.35393    1.000
    N1586    N        0.22097    0.63094    0.26007    1.000
    Si1587   Si       0.26063    0.64757    0.27244    1.000
    N1588    N        0.24507    0.68634    0.29007    1.000
    Si1589   Si       0.26232    0.72581    0.28041    1.000
    N1590    N        0.26954    0.64280    0.36187    1.000
    N1591    N        0.25255    0.74802    0.31783    1.000
    Si1592   Si       0.26390    0.68658    0.37289    1.000
    Si1593   Si       0.28336    0.75568    0.34850    1.000
    N1594    N        0.24902    0.75192    0.24889    1.000
    N1595    N        0.24717    0.60902    0.42428    1.000
    N1596    N        0.25440    0.56975    0.48461    1.000
    N1597    N        0.26590    0.52263    0.38822    1.000
    Si1598   Si       0.25627    0.57086    0.44165    1.000
    Si1599   Si       0.27553    0.63111    0.40205    1.000
    N1600    N        0.26599    0.67272    0.47356    1.000
    Si1601   Si       0.25020    0.75193    0.44947    1.000
    N1602    N        0.22693    0.72279    0.42807    1.000
    N1603    N        0.23851    0.74570    0.49177    1.000
    Si1604   Si       0.23439    0.68258    0.44476    1.000
    N1605    N        0.26913    0.67610    0.41442    1.000
    N1606    N        0.25565    0.56427    0.54781    1.000
    Si1607   Si       0.23755    0.54800    0.58288    1.000
    N1608    N        0.23561    0.62747    0.52354    1.000
    N1609    N        0.26531    0.62772    0.58418    1.000
    Si1610   Si       0.22925    0.58575    0.52017    1.000
    N1611    N        0.24645    0.56819    0.61977    1.000
    Si1612   Si       0.22530    0.63141    0.56593    1.000
    Si1613   Si       0.26046    0.71387    0.57480    1.000
    N1614    N        0.24996    0.69155    0.53767    1.000
    Si1615   Si       0.26421    0.65855    0.51417    1.000
    N1616    N        0.25043    0.69960    0.61481    1.000
    N1617    N        0.23684    0.74913    0.56035    1.000
    Si1618   Si       0.26818    0.60559    0.62207    1.000
    N1619    N        0.26682    0.56962    0.68928    1.000
    Si1620   Si       0.23953    0.55347    0.65894    1.000
    Si1621   Si       0.25404    0.61159    0.69356    1.000
    N1622    N        0.24682    0.62831    0.65347    1.000
    N1623    N        0.24923    0.51203    0.65762    1.000
    N1624    N        0.22930    0.75089    0.67243    1.000
    N1625    N        0.25732    0.69348    0.68915    1.000
    Si1626   Si       0.27311    0.70613    0.65142    1.000
    N1627    N        0.26075    0.75266    0.73163    1.000
    Si1628   Si       0.28139    0.67327    0.72332    1.000
    Si1629   Si       0.23491    0.72504    0.70787    1.000
    N1630    N        0.24888    0.52709    0.79602    1.000
    N1631    N        0.26463    0.59900    0.78425    1.000
    Si1632   Si       0.24638    0.61366    0.82357    1.000
    N1633    N        0.25886    0.60245    0.86426    1.000
    Si1634   Si       0.23429    0.56632    0.78152    1.000
    Si1635   Si       0.23798    0.51428    0.83907    1.000
    N1636    N        0.25428    0.65547    0.82627    1.000
    Si1637   Si       0.26908    0.67762    0.79071    1.000
    Si1638   Si       0.24407    0.68042    0.86036    1.000
    N1639    N        0.26060    0.72086    0.85596    1.000
    N1640    N        0.24842    0.66850    0.75432    1.000
    Si1641   Si       0.24052    0.57329    0.89085    1.000
    N1642    N        0.23899    0.54442    0.97161    1.000
    N1643    N        0.27243    0.54901    0.91260    1.000
    Si1644   Si       0.25959    0.51798    0.94102    1.000
    Si1645   Si       0.27236    0.76106    0.87385    1.000
    N1646    N        0.23152    0.63362    0.98601    1.000
    N1647    N        0.28215    0.67282    0.95534    1.000
    N1648    N        0.26946    0.66453    0.88987    1.000
    Si1649   Si       0.24364    0.67323    0.97418    1.000
    Si1650   Si       0.25099    0.85682    0.03138    1.000
    N1651    N        0.26624    0.77780    0.01980    1.000
    N1652    N        0.23713    0.82744    0.06007    1.000
    Si1653   Si       0.23107    0.78646    0.04082    1.000
    Si1654   Si       0.24594    0.76409    0.10120    1.000
    N1655    N        0.26022    0.84882    0.12102    1.000
    Si1656   Si       0.22597    0.82923    0.10340    1.000
    Si1657   Si       0.27666    0.88061    0.09584    1.000
    N1658    N        0.28209    0.77479    0.08206    1.000
    N1659    N        0.24378    0.91039    0.09191    1.000
    Si1660   Si       0.26552    0.94981    0.10243    1.000
    N1661    N        0.24042    0.98422    0.11394    1.000
    Si1662   Si       0.27632    0.98963    0.03661    1.000
    N1663    N        0.22895    0.89194    0.01981    1.000
    Si1664   Si       0.22501    0.84931    0.22627    1.000
    Si1665   Si       0.27330    0.85125    0.16367    1.000
    N1666    N        0.23737    0.83455    0.18488    1.000
    N1667    N        0.26231    0.77685    0.18306    1.000
    Si1668   Si       0.26590    0.78537    0.22833    1.000
    N1669    N        0.28285    0.89214    0.17488    1.000
    N1670    N        0.25412    0.98864    0.18847    1.000
    N1671    N        0.24443    0.89147    0.22957    1.000
    Si1672   Si       0.26769    0.99437    0.14720    1.000
    Si1673   Si       0.23741    0.83002    0.28842    1.000
    N1674    N        0.27132    0.83528    0.31252    1.000
    Si1675   Si       0.26419    0.87752    0.31666    1.000
    N1676    N        0.22882    0.87207    0.29120    1.000
    N1677    N        0.25973    0.82574    0.24878    1.000
    N1678    N        0.24928    0.89783    0.35048    1.000
    N1679    N        0.24767    0.93965    0.28644    1.000
    N1680    N        0.26959    0.96244    0.35390    1.000
    Si1681   Si       0.23455    0.95915    0.32412    1.000
    N1682    N        0.27859    0.00063    0.25114    1.000
    Si1683   Si       0.22331    0.90650    0.26656    1.000
    Si1684   Si       0.28016    0.92284    0.37082    1.000
    N1685    N        0.26818    0.78462    0.37627    1.000
    N1686    N        0.24352    0.79504    0.44068    1.000
    Si1687   Si       0.24586    0.81206    0.40157    1.000
    Si1688   Si       0.24800    0.82539    0.47130    1.000
    N1689    N        0.26629    0.85028    0.40125    1.000
    N1690    N        0.23465    0.86529    0.46192    1.000
    Si1691   Si       0.24914    0.88491    0.42352    1.000
    N1692    N        0.27588    0.91831    0.41434    1.000
    Si1693   Si       0.26450    0.94925    0.44073    1.000
    N1694    N        0.22927    0.92964    0.45971    1.000
    N1695    N        0.25418    0.98300    0.41811    1.000
    Si1696   Si       0.27987    0.99236    0.38119    1.000
    Si1697   Si       0.22439    0.89906    0.49015    1.000
    Si1698   Si       0.24642    0.77491    0.52489    1.000
    N1699    N        0.24260    0.84806    0.60038    1.000
    N1700    N        0.22989    0.81395    0.50837    1.000
    N1701    N        0.24177    0.89522    0.52743    1.000
    N1702    N        0.26553    0.97237    0.60080    1.000
    Si1703   Si       0.23666    0.93995    0.61128    1.000
    Si1704   Si       0.26091    0.99862    0.56268    1.000
    N1705    N        0.28064    0.81670    0.74055    1.000
    Si1706   Si       0.23813    0.79242    0.67176    1.000
    Si1707   Si       0.24412    0.79267    0.74419    1.000
    N1708    N        0.28000    0.80373    0.67036    1.000
    Si1709   Si       0.22998    0.89417    0.67587    1.000
    N1710    N        0.26342    0.98263    0.74078    1.000
    N1711    N        0.26172    0.97318    0.67257    1.000
    N1712    N        0.24090    0.89151    0.71800    1.000
    Si1713   Si       0.26317    0.99997    0.63686    1.000
    N1714    N        0.25235    0.91143    0.64169    1.000
    Si1715   Si       0.23431    0.80343    0.81910    1.000
    N1716    N        0.27513    0.81737    0.80782    1.000
    N1717    N        0.23538    0.77473    0.85104    1.000
    N1718    N        0.24315    0.93650    0.79604    1.000
    Si1719   Si       0.25061    0.97828    0.78385    1.000
    N1720    N        0.27532    0.89255    0.83857    1.000
    N1721    N        0.27597    0.99729    0.81192    1.000
    Si1722   Si       0.24507    0.90242    0.86776    1.000
    Si1723   Si       0.27936    0.91373    0.80181    1.000
    N1724    N        0.23433    0.79165    0.96101    1.000
    N1725    N        0.25576    0.87123    0.89768    1.000
    N1726    N        0.26905    0.79581    0.90187    1.000
    Si1727   Si       0.27534    0.79832    0.98235    1.000
    Si1728   Si       0.23065    0.78472    0.91914    1.000
    Si1729   Si       0.28031    0.83796    0.90006    1.000
    N1730    N        0.27570    0.83847    0.99846    1.000
    N1731    N        0.28392    0.90042    0.95247    1.000
    N1732    N        0.22915    0.93658    0.96045    1.000
    Si1733   Si       0.26956    0.97086    0.91341    1.000
    N1734    N        0.25232    0.93437    0.89879    1.000
    Si1735   Si       0.23329    0.97812    0.97155    1.000
    N1736    N        0.24178    0.99813    0.93406    1.000
    Si1737   Si       0.24500    0.90166    0.93176    1.000
    N1738    N        0.26671    0.98485    0.99685    1.000
    N1739    N        0.29862    0.06563    0.02103    1.000
    Si1740   Si       0.33329    0.04156    0.01030    1.000
    Si1741   Si       0.31535    0.04671    0.11395    1.000
    N1742    N        0.29461    0.13296    0.03750    1.000
    N1743    N        0.28688    0.07017    0.08904    1.000
    N1744    N        0.34180    0.01518    0.09692    1.000
    N1745    N        0.32250    0.13561    0.10129    1.000
    N1746    N        0.31973    0.23686    0.02897    1.000
    Si1747   Si       0.32002    0.16805    0.03268    1.000
    N1748    N        0.31217    0.24050    0.09812    1.000
    N1749    N        0.29441    0.18672    0.06452    1.000
    Si1750   Si       0.28904    0.22879    0.06074    1.000
    Si1751   Si       0.28598    0.14673    0.07953    1.000
    N1752    N        0.30743    0.06267    0.21092    1.000
    Si1753   Si       0.32735    0.11136    0.13684    1.000
    Si1754   Si       0.30224    0.09523    0.23948    1.000
    Si1755   Si       0.33935    0.03225    0.22005    1.000
    N1756    N        0.28827    0.03258    0.14461    1.000
    N1757    N        0.28781    0.09870    0.14993    1.000
    Si1758   Si       0.28771    0.25277    0.13105    1.000
    Si1759   Si       0.28763    0.20000    0.18529    1.000
    N1760    N        0.32272    0.18952    0.20799    1.000
    N1761    N        0.30322    0.23846    0.17063    1.000
    N1762    N        0.28719    0.16735    0.15368    1.000
    N1763    N        0.29410    0.09263    0.33584    1.000
    Si1764   Si       0.33671    0.10038    0.34606    1.000
    N1765    N        0.34170    0.02983    0.26413    1.000
    Si1766   Si       0.30330    0.21897    0.36395    1.000
    N1767    N        0.30063    0.19213    0.32984    1.000
    N1768    N        0.31254    0.23466    0.26289    1.000
    Si1769   Si       0.33850    0.17562    0.31810    1.000
    N1770    N        0.33721    0.16686    0.27702    1.000
    Si1771   Si       0.31465    0.19388    0.25193    1.000
    N1772    N        0.31662    0.09463    0.44751    1.000
    N1773    N        0.33896    0.01333    0.46739    1.000
    Si1774   Si       0.34171    0.11182    0.48249    1.000
    Si1775   Si       0.30270    0.16285    0.43821    1.000
    N1776    N        0.33124    0.14720    0.40995    1.000
    N1777    N        0.32112    0.15135    0.47489    1.000
    N1778    N        0.30487    0.20653    0.44665    1.000
    N1779    N        0.28913    0.10374    0.55235    1.000
    N1780    N        0.29642    0.06017    0.50270    1.000
    Si1781   Si       0.33123    0.11338    0.56270    1.000
    Si1782   Si       0.28756    0.05852    0.60774    1.000
    Si1783   Si       0.33471    0.04083    0.50005    1.000
    Si1784   Si       0.29397    0.17784    0.59303    1.000
    Si1785   Si       0.32471    0.16641    0.51422    1.000
    N1786    N        0.33042    0.15381    0.58158    1.000
    Si1787   Si       0.29089    0.25432    0.60227    1.000
    N1788    N        0.28627    0.17610    0.53243    1.000
    N1789    N        0.33715    0.25190    0.49918    1.000
    N1790    N        0.31958    0.08377    0.62411    1.000
    Si1791   Si       0.32347    0.03358    0.67550    1.000
    N1792    N        0.30101    0.06850    0.69071    1.000
    Si1793   Si       0.30790    0.10039    0.66319    1.000
    N1794    N        0.29723    0.02537    0.63832    1.000
    N1795    N        0.33953    0.12689    0.67534    1.000
    Si1796   Si       0.33596    0.16576    0.65676    1.000
    N1797    N        0.32211    0.19108    0.68946    1.000
    N1798    N        0.30795    0.24582    0.64358    1.000
    N1799    N        0.30088    0.18030    0.63543    1.000
    Si1800   Si       0.33283    0.18909    0.73052    1.000
    Si1801   Si       0.29284    0.21028    0.66569    1.000
    N1802    N        0.31335    0.11644    0.81009    1.000
    Si1803   Si       0.32422    0.07668    0.82907    1.000
    N1804    N        0.30875    0.06568    0.76102    1.000
    N1805    N        0.28740    0.06074    0.84474    1.000
    N1806    N        0.34358    0.09080    0.86591    1.000
    Si1807   Si       0.33860    0.13595    0.77993    1.000
    Si1808   Si       0.32589    0.18677    0.82780    1.000
    Si1809   Si       0.31947    0.24937    0.86533    1.000
    N1810    N        0.33783    0.23090    0.82820    1.000
    N1811    N        0.33716    0.16435    0.86353    1.000
    N1812    N        0.31169    0.15395    0.74936    1.000
    N1813    N        0.28427    0.17853    0.81522    1.000
    Si1814   Si       0.29485    0.25677    0.75514    1.000
    N1815    N        0.32594    0.23079    0.74050    1.000
    N1816    N        0.32906    0.02093    0.97143    1.000
    N1817    N        0.28908    0.08552    0.91069    1.000
    Si1818   Si       0.33016    0.07547    0.90245    1.000
    N1819    N        0.33418    0.03183    0.89996    1.000
    N1820    N        0.30776    0.17909    0.99062    1.000
    Si1821   Si       0.28286    0.15951    0.96177    1.000
    N1822    N        0.29737    0.21911    0.88633    1.000
    Si1823   Si       0.29962    0.22347    0.99226    1.000
    N1824    N        0.32182    0.24137    0.95972    1.000
    Si1825   Si       0.31896    0.18394    0.89917    1.000
    N1826    N        0.29072    0.16130    0.92090    1.000
    N1827    N        0.30971    0.30118    0.05194    1.000
    Si1828   Si       0.31558    0.36649    0.01185    1.000
    N1829    N        0.32154    0.34696    0.10845    1.000
    Si1830   Si       0.31955    0.34140    0.06636    1.000
    N1831    N        0.28795    0.36364    0.04650    1.000
    Si1832   Si       0.34001    0.27324    0.03995    1.000
    Si1833   Si       0.33000    0.46756    0.05400    1.000
    N1834    N        0.31944    0.46923    0.01124    1.000
    N1835    N        0.32474    0.43185    0.07846    1.000
    Si1836   Si       0.29434    0.42950    0.10852    1.000
    N1837    N        0.31289    0.50503    0.06774    1.000
    Si1838   Si       0.29815    0.50520    0.99978    1.000
    Si1839   Si       0.30324    0.43333    0.99482    1.000
    N1840    N        0.33366    0.40112    0.99467    1.000
    N1841    N        0.33824    0.35641    0.22138    1.000
    N1842    N        0.30738    0.29080    0.21961    1.000
    N1843    N        0.28963    0.29517    0.14656    1.000
    Si1844   Si       0.28529    0.27703    0.18545    1.000
    N1845    N        0.29606    0.45787    0.20610    1.000
    Si1846   Si       0.30976    0.38385    0.23761    1.000
    N1847    N        0.31575    0.42452    0.14507    1.000
    Si1848   Si       0.33814    0.45315    0.21887    1.000
    N1849    N        0.32625    0.29672    0.28999    1.000
    N1850    N        0.31232    0.32686    0.35248    1.000
    Si1851   Si       0.30487    0.28979    0.33144    1.000
    Si1852   Si       0.30143    0.27681    0.26007    1.000
    N1853    N        0.32353    0.25358    0.34928    1.000
    N1854    N        0.31858    0.41305    0.31723    1.000
    N1855    N        0.31523    0.47897    0.28784    1.000
    Si1856   Si       0.33634    0.43983    0.28823    1.000
    N1857    N        0.33223    0.42216    0.24904    1.000
    N1858    N        0.29064    0.26887    0.45651    1.000
    Si1859   Si       0.29697    0.33420    0.39331    1.000
    Si1860   Si       0.31619    0.33605    0.48375    1.000
    Si1861   Si       0.33273    0.27354    0.46059    1.000
    N1862    N        0.28872    0.33825    0.45023    1.000
    N1863    N        0.32373    0.37916    0.48763    1.000
    N1864    N        0.33907    0.34439    0.40338    1.000
    Si1865   Si       0.31410    0.43786    0.39877    1.000
    Si1866   Si       0.28895    0.42683    0.48134    1.000
    Si1867   Si       0.28784    0.38062    0.43976    1.000
    N1868    N        0.30723    0.42251    0.43833    1.000
    N1869    N        0.31314    0.48198    0.38370    1.000
    Si1870   Si       0.30254    0.48973    0.48822    1.000
    Si1871   Si       0.30449    0.26899    0.52349    1.000
    N1872    N        0.29256    0.31200    0.51239    1.000
    N1873    N        0.31450    0.26813    0.56576    1.000
    N1874    N        0.29041    0.36894    0.56892    1.000
    Si1875   Si       0.32918    0.38039    0.58205    1.000
    Si1876   Si       0.31745    0.43925    0.54276    1.000
    N1877    N        0.31209    0.46681    0.57469    1.000
    N1878    N        0.32807    0.45710    0.50286    1.000
    Si1879   Si       0.29435    0.50606    0.56581    1.000
    Si1880   Si       0.31861    0.45176    0.61583    1.000
    N1881    N        0.32306    0.40726    0.61627    1.000
    N1882    N        0.31260    0.34518    0.72519    1.000
    N1883    N        0.33190    0.34462    0.65715    1.000
    Si1884   Si       0.34090    0.32927    0.69704    1.000
    N1885    N        0.34450    0.28678    0.69178    1.000
    Si1886   Si       0.32534    0.38797    0.65614    1.000
    N1887    N        0.30720    0.43515    0.73044    1.000
    N1888    N        0.28928    0.39407    0.67659    1.000
    Si1889   Si       0.31732    0.48153    0.73694    1.000
    N1890    N        0.28984    0.49664    0.70455    1.000
    N1891    N        0.29853    0.28108    0.84523    1.000
    Si1892   Si       0.32323    0.31720    0.83876    1.000
    N1893    N        0.30932    0.34025    0.80308    1.000
    Si1894   Si       0.32793    0.33119    0.76444    1.000
    N1895    N        0.32964    0.28719    0.76447    1.000
    Si1896   Si       0.29058    0.37804    0.81764    1.000
    N1897    N        0.31775    0.39040    0.84919    1.000
    Si1898   Si       0.33251    0.42233    0.82497    1.000
    N1899    N        0.31702    0.48865    0.77909    1.000
    N1900    N        0.30326    0.41296    0.79304    1.000
    N1901    N        0.32755    0.45917    0.84284    1.000
    Si1902   Si       0.30270    0.47585    0.87445    1.000
    N1903    N        0.29816    0.34429    0.97917    1.000
    Si1904   Si       0.31780    0.28399    0.96612    1.000
    Si1905   Si       0.32811    0.35182    0.94752    1.000
    N1906    N        0.33598    0.30938    0.93496    1.000
    Si1907   Si       0.33917    0.37476    0.88223    1.000
    N1908    N        0.31517    0.38035    0.91667    1.000
    N1909    N        0.34055    0.33340    0.87471    1.000
    Si1910   Si       0.29949    0.42047    0.92484    1.000
    N1911    N        0.33665    0.44205    0.93346    1.000
    N1912    N        0.33226    0.49582    0.90027    1.000
    N1913    N        0.29614    0.50054    0.95806    1.000
    Si1914   Si       0.33431    0.48625    0.94350    1.000
    N1915    N        0.32090    0.54067    0.01063    1.000
    N1916    N        0.30737    0.57350    0.07249    1.000
    Si1917   Si       0.31780    0.59859    0.10384    1.000
    Si1918   Si       0.33002    0.54238    0.05273    1.000
    N1919    N        0.32867    0.63765    0.09103    1.000
    Si1920   Si       0.31178    0.67661    0.09652    1.000
    N1921    N        0.33339    0.75385    0.02580    1.000
    N1922    N        0.30098    0.52009    0.13441    1.000
    N1923    N        0.33088    0.55538    0.19103    1.000
    Si1924   Si       0.29217    0.55573    0.20872    1.000
    Si1925   Si       0.33546    0.54005    0.14825    1.000
    Si1926   Si       0.29461    0.62787    0.21364    1.000
    N1927    N        0.33363    0.62834    0.19524    1.000
    N1928    N        0.29261    0.58894    0.23817    1.000
    N1929    N        0.28692    0.52259    0.23583    1.000
    N1930    N        0.34116    0.58228    0.13656    1.000
    Si1931   Si       0.32035    0.68725    0.24657    1.000
    N1932    N        0.28691    0.66065    0.23964    1.000
    Si1933   Si       0.33440    0.70967    0.16561    1.000
    N1934    N        0.33538    0.69562    0.20625    1.000
    N1935    N        0.30937    0.68669    0.13890    1.000
    N1936    N        0.31111    0.74659    0.16572    1.000
    N1937    N        0.33038    0.55155    0.28143    1.000
    Si1938   Si       0.29392    0.57818    0.28065    1.000
    Si1939   Si       0.32194    0.51376    0.26063    1.000
    N1940    N        0.30687    0.71717    0.27532    1.000
    N1941    N        0.29479    0.71404    0.35982    1.000
    Si1942   Si       0.33507    0.74392    0.29631    1.000
    Si1943   Si       0.33854    0.71823    0.36131    1.000
    Si1944   Si       0.32572    0.55613    0.45593    1.000
    Si1945   Si       0.29783    0.55244    0.38635    1.000
    N1946    N        0.29605    0.56664    0.42693    1.000
    N1947    N        0.33987    0.54279    0.37925    1.000
    N1948    N        0.32511    0.51181    0.46006    1.000
    N1949    N        0.34484    0.75732    0.38174    1.000
    N1950    N        0.31460    0.63750    0.42024    1.000
    N1951    N        0.29166    0.74525    0.43671    1.000
    N1952    N        0.33743    0.67527    0.47067    1.000
    Si1953   Si       0.30010    0.67039    0.44712    1.000
    N1954    N        0.31821    0.53303    0.59180    1.000
    N1955    N        0.32749    0.59465    0.55746    1.000
    Si1956   Si       0.30232    0.62874    0.56460    1.000
    N1957    N        0.29281    0.51494    0.52356    1.000
    Si1958   Si       0.28464    0.55677    0.51510    1.000
    N1959    N        0.31996    0.57071    0.49453    1.000
    N1960    N        0.30369    0.64649    0.52441    1.000
    N1961    N        0.30201    0.72303    0.57134    1.000
    N1962    N        0.32528    0.65628    0.58885    1.000
    Si1963   Si       0.33744    0.69777    0.57663    1.000
    Si1964   Si       0.33655    0.52756    0.63185    1.000
    N1965    N        0.30989    0.60543    0.63084    1.000
    Si1966   Si       0.29434    0.53838    0.69561    1.000
    N1967    N        0.32761    0.54827    0.66855    1.000
    N1968    N        0.31774    0.54976    0.73079    1.000
    N1969    N        0.28371    0.62915    0.71947    1.000
    N1970    N        0.30107    0.74046    0.65119    1.000
    Si1971   Si       0.32673    0.64577    0.63162    1.000
    Si1972   Si       0.33783    0.71471    0.65343    1.000
    N1973    N        0.31070    0.67863    0.65173    1.000
    N1974    N        0.31228    0.70103    0.73346    1.000
    N1975    N        0.32158    0.54471    0.80628    1.000
    Si1976   Si       0.29561    0.61817    0.76142    1.000
    Si1977   Si       0.28987    0.51638    0.80355    1.000
    N1978    N        0.33609    0.60082    0.76655    1.000
    Si1979   Si       0.33739    0.55829    0.76902    1.000
    N1980    N        0.32381    0.62945    0.85465    1.000
    N1981    N        0.30586    0.65455    0.78413    1.000
    Si1982   Si       0.33032    0.65520    0.81976    1.000
    N1983    N        0.32531    0.69383    0.84149    1.000
    Si1984   Si       0.29798    0.72469    0.83082    1.000
    Si1985   Si       0.29705    0.73673    0.75428    1.000
    N1986    N        0.28085    0.72033    0.79084    1.000
    N1987    N        0.33404    0.56813    0.87826    1.000
    N1988    N        0.29737    0.60831    0.98641    1.000
    Si1989   Si       0.31091    0.57021    0.91582    1.000
    N1990    N        0.30124    0.61244    0.92033    1.000
    Si1991   Si       0.32802    0.57626    0.98701    1.000
    Si1992   Si       0.28985    0.62748    0.88078    1.000
    N1993    N        0.34106    0.56490    0.94767    1.000
    Si1994   Si       0.34007    0.74652    0.91341    1.000
    N1995    N        0.33242    0.68054    0.91236    1.000
    Si1996   Si       0.30921    0.63789    0.95550    1.000
    N1997    N        0.29784    0.73504    0.90736    1.000
    Si1998   Si       0.29019    0.69249    0.91598    1.000
    Si1999   Si       0.31901    0.85751    0.03376    1.000
    N2000    N        0.32550    0.81705    0.04679    1.000
    Si2001   Si       0.30187    0.78008    0.04418    1.000
    N2002    N        0.28386    0.87133    0.05373    1.000
    N2003    N        0.32748    0.87931    0.99729    1.000
    N2004    N        0.31753    0.00593    0.03307    1.000
    Si2005   Si       0.33016    0.98391    0.06809    1.000
    N2006    N        0.31223    0.89526    0.11451    1.000
    N2007    N        0.28945    0.96055    0.06892    1.000
    N2008    N        0.32597    0.94707    0.99859    1.000
    N2009    N        0.31551    0.86978    0.22695    1.000
    N2010    N        0.30842    0.82425    0.16235    1.000
    Si2011   Si       0.30582    0.78664    0.18225    1.000
    N2012    N        0.30914    0.78481    0.22537    1.000
    N2013    N        0.29337    0.93924    0.22981    1.000
    Si2014   Si       0.31059    0.91940    0.15126    1.000
    Si2015   Si       0.28679    0.97871    0.21446    1.000
    N2016    N        0.32764    0.99299    0.20308    1.000
    Si2017   Si       0.28600    0.89870    0.21646    1.000
    N2018    N        0.29029    0.95675    0.13884    1.000
    N2019    N        0.32489    0.82569    0.35553    1.000
    N2020    N        0.31434    0.77228    0.32132    1.000
    Si2021   Si       0.30796    0.81532    0.31792    1.000
    Si2022   Si       0.29605    0.85223    0.26191    1.000
    N2023    N        0.32531    0.82589    0.28027    1.000
    Si2024   Si       0.34033    0.79837    0.25220    1.000
    N2025    N        0.31635    0.96191    0.29152    1.000
    N2026    N        0.28972    0.89112    0.28520    1.000
    N2027    N        0.31363    0.89420    0.36564    1.000
    Si2028   Si       0.28881    0.93412    0.27360    1.000
    Si2029   Si       0.31195    0.00405    0.28075    1.000
    N2030    N        0.33458    0.85734    0.41853    1.000
    Si2031   Si       0.32581    0.83366    0.45558    1.000
    Si2032   Si       0.30827    0.85413    0.38536    1.000
    N2033    N        0.29104    0.82412    0.47893    1.000
    Si2034   Si       0.32845    0.75978    0.42195    1.000
    Si2035   Si       0.30415    0.00345    0.44356    1.000
    N2036    N        0.28971    0.96821    0.47131    1.000
    N2037    N        0.31727    0.99151    0.40271    1.000
    Si2038   Si       0.30409    0.81808    0.51964    1.000
    Si2039   Si       0.30630    0.76617    0.56881    1.000
    N2040    N        0.29109    0.84708    0.54957    1.000
    N2041    N        0.28743    0.78092    0.53324    1.000
    N2042    N        0.28992    0.79299    0.60112    1.000
    N2043    N        0.30853    0.85568    0.61760    1.000
    Si2044   Si       0.28118    0.83442    0.59083    1.000
    Si2045   Si       0.29899    0.95222    0.58108    1.000
    N2046    N        0.30721    0.91149    0.51461    1.000
    Si2047   Si       0.30750    0.95443    0.50779    1.000
    N2048    N        0.33610    0.96293    0.59835    1.000
    N2049    N        0.29081    0.97215    0.54253    1.000
    N2050    N        0.28543    0.91161    0.58256    1.000
    Si2051   Si       0.28113    0.89115    0.54425    1.000
    N2052    N        0.30557    0.86900    0.70073    1.000
    Si2053   Si       0.30003    0.82583    0.70326    1.000
    Si2054   Si       0.30380    0.78291    0.64029    1.000
    N2055    N        0.33980    0.80664    0.70797    1.000
    Si2056   Si       0.28838    0.97331    0.70729    1.000
    N2057    N        0.32199    0.91551    0.64630    1.000
    N2058    N        0.32346    0.99939    0.70409    1.000
    Si2059   Si       0.32875    0.90355    0.68690    1.000
    N2060    N        0.30207    0.93226    0.71338    1.000
    Si2061   Si       0.28947    0.89537    0.62434    1.000
    Si2062   Si       0.28161    0.89504    0.72831    1.000
    Si2063   Si       0.30829    0.80604    0.83442    1.000
    Si2064   Si       0.29202    0.84053    0.77348    1.000
    N2065    N        0.33494    0.83320    0.77057    1.000
    Si2066   Si       0.31158    0.87493    0.85147    1.000
    N2067    N        0.30370    0.76521    0.84336    1.000
    N2068    N        0.33054    0.76240    0.76996    1.000
    N2069    N        0.30578    0.83479    0.86487    1.000
    N2070    N        0.28505    0.88472    0.76956    1.000
    N2071    N        0.31596    0.93644    0.80280    1.000
    Si2072   Si       0.31619    0.98024    0.80532    1.000
    Si2073   Si       0.29814    0.86508    0.96932    1.000
    N2074    N        0.30634    0.84117    0.93624    1.000
    N2075    N        0.31796    0.78758    0.97231    1.000
    Si2076   Si       0.33760    0.81472    0.94312    1.000
    Si2077   Si       0.30832    0.98403    0.98139    1.000
    N2078    N        0.28622    0.99266    0.87903    1.000
    Si2079   Si       0.32918    0.99442    0.87827    1.000
    N2080    N        0.30282    0.96364    0.94128    1.000
    Si2081   Si       0.31790    0.92576    0.96165    1.000
    N2082    N        0.33399    0.89919    0.87986    1.000
    N2083    N        0.38890    0.12559    0.10070    1.000
    Si2084   Si       0.38457    0.02231    0.10145    1.000
    N2085    N        0.36905    0.06432    0.00906    1.000
    N2086    N        0.36103    0.15967    0.04515    1.000
    N2087    N        0.36651    0.19755    0.10195    1.000
    Si2088   Si       0.35581    0.23942    0.10319    1.000
    Si2089   Si       0.35964    0.15630    0.08992    1.000
    N2090    N        0.37952    0.04610    0.20676    1.000
    Si2091   Si       0.38323    0.05958    0.16363    1.000
    Si2092   Si       0.39600    0.12680    0.14613    1.000
    N2093    N        0.39790    0.02552    0.14330    1.000
    N2094    N        0.34697    0.07184    0.13774    1.000
    N2095    N        0.35625    0.13620    0.16080    1.000
    N2096    N        0.36019    0.25369    0.21095    1.000
    N2097    N        0.38032    0.19784    0.17717    1.000
    N2098    N        0.36460    0.25400    0.14243    1.000
    Si2099   Si       0.34878    0.23032    0.17670    1.000
    N2100    N        0.37604    0.14830    0.22558    1.000
    Si2101   Si       0.35435    0.16419    0.19292    1.000
    Si2102   Si       0.36079    0.06386    0.28128    1.000
    N2103    N        0.36269    0.07043    0.32511    1.000
    Si2104   Si       0.38433    0.06150    0.36198    1.000
    N2105    N        0.37669    0.01723    0.36660    1.000
    N2106    N        0.34183    0.09871    0.26144    1.000
    Si2107   Si       0.36464    0.13585    0.26525    1.000
    N2108    N        0.36868    0.20573    0.32792    1.000
    Si2109   Si       0.36219    0.23334    0.35879    1.000
    N2110    N        0.39288    0.21151    0.25716    1.000
    Si2111   Si       0.39780    0.22072    0.29947    1.000
    N2112    N        0.35090    0.14173    0.34419    1.000
    N2113    N        0.37593    0.11850    0.44896    1.000
    N2114    N        0.35117    0.08496    0.38516    1.000
    Si2115   Si       0.39860    0.08307    0.46962    1.000
    Si2116   Si       0.34758    0.10831    0.41867    1.000
    Si2117   Si       0.38077    0.01143    0.45388    1.000
    N2118    N        0.39721    0.04814    0.44151    1.000
    N2119    N        0.36249    0.07317    0.49096    1.000
    N2120    N        0.37474    0.19810    0.45278    1.000
    Si2121   Si       0.36013    0.16567    0.38117    1.000
    Si2122   Si       0.39286    0.15986    0.44644    1.000
    N2123    N        0.39823    0.24880    0.37418    1.000
    Si2124   Si       0.34164    0.21625    0.42861    1.000
    N2125    N        0.34206    0.20679    0.38782    1.000
    N2126    N        0.39817    0.16528    0.40055    1.000
    N2127    N        0.36386    0.08594    0.57218    1.000
    Si2128   Si       0.37252    0.04570    0.56587    1.000
    N2129    N        0.36815    0.02954    0.60657    1.000
    N2130    N        0.35102    0.02187    0.53513    1.000
    N2131    N        0.34720    0.12924    0.52255    1.000
    Si2132   Si       0.39813    0.10959    0.58516    1.000
    Si2133   Si       0.36333    0.18110    0.57470    1.000
    Si2134   Si       0.37224    0.23078    0.51607    1.000
    N2135    N        0.36682    0.21844    0.59654    1.000
    N2136    N        0.35894    0.18952    0.53025    1.000
    Si2137   Si       0.38513    0.15227    0.52501    1.000
    N2138    N        0.39311    0.14798    0.56663    1.000
    Si2139   Si       0.36025    0.06796    0.62711    1.000
    Si2140   Si       0.39147    0.05095    0.70116    1.000
    N2141    N        0.38894    0.10449    0.62789    1.000
    N2142    N        0.36187    0.05250    0.66951    1.000
    N2143    N        0.36836    0.04044    0.73636    1.000
    N2144    N        0.37565    0.17278    0.63935    1.000
    Si2145   Si       0.39160    0.21122    0.63021    1.000
    N2146    N        0.37720    0.18653    0.73969    1.000
    N2147    N        0.38307    0.23644    0.66613    1.000
    N2148    N        0.36564    0.10595    0.76051    1.000
    N2149    N        0.36139    0.05848    0.80927    1.000
    Si2150   Si       0.35151    0.06670    0.76515    1.000
    Si2151   Si       0.36879    0.01406    0.80671    1.000
    N2152    N        0.39273    0.12369    0.83649    1.000
    Si2153   Si       0.39744    0.08001    0.82479    1.000
    Si2154   Si       0.36222    0.12917    0.86772    1.000
    Si2155   Si       0.37768    0.20235    0.77943    1.000
    N2156    N        0.37771    0.24492    0.77937    1.000
    N2157    N        0.35217    0.17318    0.79738    1.000
    Si2158   Si       0.39415    0.10198    0.93414    1.000
    N2159    N        0.35792    0.07757    0.93628    1.000
    Si2160   Si       0.35455    0.03177    0.94061    1.000
    N2161    N        0.39150    0.01214    0.93627    1.000
    N2162    N        0.38538    0.13223    0.90440    1.000
    N2163    N        0.39046    0.24810    0.95246    1.000
    N2164    N        0.35474    0.19615    0.91949    1.000
    Si2165   Si       0.39137    0.17446    0.90736    1.000
    Si2166   Si       0.35350    0.23713    0.92985    1.000
    Si2167   Si       0.38798    0.36305    0.04753    1.000
    N2168    N        0.34769    0.34963    0.03653    1.000
    N2169    N        0.36791    0.26661    0.07202    1.000
    Si2170   Si       0.36440    0.35674    0.12003    1.000
    N2171    N        0.38979    0.32030    0.11733    1.000
    N2172    N        0.35013    0.28707    0.99794    1.000
    N2173    N        0.37724    0.38422    0.08591    1.000
    Si2174   Si       0.36891    0.42770    0.08375    1.000
    N2175    N        0.37401    0.46517    0.06049    1.000
    Si2176   Si       0.39893    0.50190    0.05489    1.000
    N2177    N        0.38612    0.43938    0.12186    1.000
    N2178    N        0.36496    0.31514    0.18027    1.000
    Si2179   Si       0.38225    0.29031    0.15089    1.000
    Si2180   Si       0.36996    0.35631    0.19289    1.000
    Si2181   Si       0.34881    0.29504    0.21378    1.000
    N2182    N        0.36849    0.38065    0.15682    1.000
    N2183    N        0.37921    0.30090    0.24379    1.000
    Si2184   Si       0.38799    0.25539    0.24386    1.000
    Si2185   Si       0.35924    0.42205    0.15303    1.000
    N2186    N        0.36942    0.44422    0.18982    1.000
    N2187    N        0.35088    0.49293    0.23515    1.000
    Si2188   Si       0.39206    0.50462    0.23700    1.000
    Si2189   Si       0.36901    0.30179    0.29529    1.000
    N2190    N        0.37498    0.30802    0.33928    1.000
    N2191    N        0.37195    0.37432    0.34429    1.000
    Si2192   Si       0.35315    0.33987    0.36074    1.000
    N2193    N        0.38660    0.26176    0.29190    1.000
    N2194    N        0.39830    0.34024    0.28898    1.000
    N2195    N        0.37358    0.44449    0.31168    1.000
    Si2196   Si       0.38733    0.48469    0.30201    1.000
    Si2197   Si       0.35311    0.41311    0.34188    1.000
    N2198    N        0.38053    0.50137    0.34200    1.000
    Si2199   Si       0.36946    0.32955    0.42869    1.000
    Si2200   Si       0.38776    0.32763    0.48813    1.000
    Si2201   Si       0.39532    0.26705    0.41291    1.000
    N2202    N        0.35006    0.31294    0.46733    1.000
    N2203    N        0.39514    0.30804    0.40065    1.000
    N2204    N        0.39856    0.35008    0.45227    1.000
    N2205    N        0.35614    0.25806    0.42840    1.000
    N2206    N        0.38773    0.49284    0.48205    1.000
    Si2207   Si       0.38717    0.44607    0.39778    1.000
    Si2208   Si       0.35141    0.50118    0.37623    1.000
    N2209    N        0.37485    0.48773    0.41053    1.000
    N2210    N        0.35132    0.42794    0.38071    1.000
    N2211    N        0.37415    0.34987    0.52074    1.000
    N2212    N        0.35988    0.35012    0.58753    1.000
    Si2213   Si       0.39331    0.35066    0.56059    1.000
    N2214    N        0.38057    0.25936    0.54740    1.000
    Si2215   Si       0.35529    0.25936    0.58296    1.000
    N2216    N        0.35610    0.28462    0.61778    1.000
    Si2217   Si       0.35818    0.38865    0.51128    1.000
    Si2218   Si       0.37204    0.45792    0.50389    1.000
    N2219    N        0.38723    0.46239    0.54546    1.000
    N2220    N        0.38943    0.43628    0.61470    1.000
    N2221    N        0.34481    0.40601    0.54830    1.000
    N2222    N        0.38661    0.41816    0.49531    1.000
    Si2223   Si       0.35692    0.32857    0.62440    1.000
    N2224    N        0.37844    0.34729    0.70882    1.000
    Si2225   Si       0.34564    0.26191    0.65610    1.000
    N2226    N        0.39638    0.33595    0.64259    1.000
    N2227    N        0.39565    0.26317    0.72364    1.000
    Si2228   Si       0.35265    0.26346    0.72992    1.000
    Si2229   Si       0.38998    0.37129    0.74198    1.000
    N2230    N        0.35565    0.47378    0.71805    1.000
    N2231    N        0.34422    0.48538    0.63076    1.000
    Si2232   Si       0.34782    0.42789    0.71656    1.000
    N2233    N        0.37651    0.41364    0.74514    1.000
    Si2234   Si       0.39037    0.42295    0.65668    1.000
    Si2235   Si       0.39453    0.48692    0.70345    1.000
    N2236    N        0.35492    0.41170    0.67811    1.000
    Si2237   Si       0.38807    0.47741    0.62703    1.000
    N2238    N        0.36654    0.35328    0.77215    1.000
    Si2239   Si       0.38608    0.33294    0.80526    1.000
    N2240    N        0.36128    0.30221    0.82266    1.000
    Si2241   Si       0.34787    0.26545    0.80227    1.000
    Si2242   Si       0.39324    0.43320    0.78001    1.000
    N2243    N        0.37483    0.41375    0.81496    1.000
    N2244    N        0.38580    0.47523    0.79090    1.000
    Si2245   Si       0.34952    0.48463    0.81275    1.000
    Si2246   Si       0.40053    0.39888    0.84748    1.000
    N2247    N        0.35012    0.26107    0.89225    1.000
    Si2248   Si       0.35884    0.30263    0.89760    1.000
    N2249    N        0.37119    0.35803    0.95677    1.000
    Si2250   Si       0.39112    0.27782    0.98515    1.000
    N2251    N        0.40274    0.30872    0.90614    1.000
    Si2252   Si       0.37164    0.50163    0.88246    1.000
    N2253    N        0.39786    0.41661    0.94996    1.000
    N2254    N        0.37643    0.39919    0.88541    1.000
    Si2255   Si       0.37440    0.43034    0.91607    1.000
    N2256    N        0.37018    0.49621    0.96455    1.000
    N2257    N        0.39330    0.46459    0.89572    1.000
    Si2258   Si       0.37641    0.39519    0.98082    1.000
    N2259    N        0.37647    0.54021    0.05644    1.000
    N2260    N        0.35960    0.59682    0.01114    1.000
    Si2261   Si       0.38825    0.58086    0.04270    1.000
    N2262    N        0.38604    0.61231    0.07228    1.000
    Si2263   Si       0.36740    0.65556    0.07189    1.000
    Si2264   Si       0.35400    0.73375    0.05931    1.000
    N2265    N        0.39559    0.73292    0.04762    1.000
    N2266    N        0.38816    0.66280    0.03065    1.000
    N2267    N        0.39958    0.66731    0.10143    1.000
    N2268    N        0.34375    0.69495    0.07256    1.000
    Si2269   Si       0.37727    0.63607    0.99797    1.000
    N2270    N        0.37273    0.51993    0.14623    1.000
    Si2271   Si       0.35247    0.59202    0.17952    1.000
    N2272    N        0.39352    0.59530    0.19158    1.000
    N2273    N        0.38966    0.66078    0.17374    1.000
    N2274    N        0.37143    0.72289    0.14543    1.000
    Si2275   Si       0.36052    0.66055    0.20620    1.000
    Si2276   Si       0.39728    0.68808    0.13946    1.000
    Si2277   Si       0.37386    0.55896    0.28513    1.000
    Si2278   Si       0.38882    0.60956    0.34280    1.000
    N2279    N        0.38765    0.57076    0.32413    1.000
    N2280    N        0.39076    0.58860    0.25842    1.000
    N2281    N        0.39874    0.52166    0.27809    1.000
    Si2282   Si       0.38619    0.63050    0.27064    1.000
    N2283    N        0.38080    0.64156    0.31434    1.000
    N2284    N        0.36374    0.71932    0.32465    1.000
    Si2285   Si       0.38309    0.68048    0.33373    1.000
    Si2286   Si       0.39868    0.74979    0.31999    1.000
    N2287    N        0.35592    0.65740    0.25054    1.000
    N2288    N        0.35484    0.67782    0.37104    1.000
    N2289    N        0.36215    0.60754    0.37736    1.000
    N2290    N        0.36659    0.55316    0.43792    1.000
    Si2291   Si       0.36872    0.57050    0.39847    1.000
    Si2292   Si       0.36743    0.51031    0.44721    1.000
    Si2293   Si       0.38616    0.74911    0.46153    1.000
    Si2294   Si       0.35080    0.64395    0.39761    1.000
    Si2295   Si       0.37098    0.69013    0.44813    1.000
    N2296    N        0.38457    0.65653    0.42581    1.000
    N2297    N        0.35453    0.72849    0.43847    1.000
    N2298    N        0.37123    0.55372    0.53983    1.000
    Si2299   Si       0.35037    0.58783    0.52043    1.000
    N2300    N        0.36878    0.62555    0.51087    1.000
    Si2301   Si       0.34890    0.56123    0.57770    1.000
    N2302    N        0.36792    0.56269    0.61839    1.000
    N2303    N        0.35785    0.69188    0.53842    1.000
    N2304    N        0.35527    0.71265    0.61438    1.000
    Si2305   Si       0.39509    0.72621    0.61025    1.000
    Si2306   Si       0.39165    0.71890    0.52994    1.000
    N2307    N        0.38173    0.75283    0.50611    1.000
    Si2308   Si       0.34373    0.66053    0.51141    1.000
    Si2309   Si       0.35600    0.55305    0.70692    1.000
    N2310    N        0.37594    0.58861    0.68651    1.000
    N2311    N        0.38717    0.52730    0.68922    1.000
    Si2312   Si       0.34932    0.58942    0.64951    1.000
    N2313    N        0.36416    0.63491    0.64657    1.000
    N2314    N        0.36638    0.70923    0.68431    1.000
    Si2315   Si       0.35463    0.69193    0.72239    1.000
    Si2316   Si       0.37817    0.63339    0.68910    1.000
    N2317    N        0.35857    0.64780    0.72341    1.000
    N2318    N        0.37590    0.58131    0.83447    1.000
    Si2319   Si       0.36836    0.62895    0.76327    1.000
    N2320    N        0.36540    0.51229    0.84180    1.000
    Si2321   Si       0.34573    0.55020    0.84137    1.000
    N2322    N        0.37524    0.55172    0.74697    1.000
    Si2323   Si       0.35734    0.60527    0.86766    1.000
    N2324    N        0.38224    0.70711    0.75262    1.000
    N2325    N        0.36783    0.64980    0.80207    1.000
    N2326    N        0.38272    0.73790    0.81621    1.000
    N2327    N        0.38631    0.65952    0.86648    1.000
    Si2328   Si       0.39881    0.74293    0.85777    1.000
    N2329    N        0.39524    0.53544    0.90053    1.000
    N2330    N        0.37890    0.60673    0.90654    1.000
    Si2331   Si       0.38093    0.56752    0.93012    1.000
    Si2332   Si       0.35374    0.68583    0.87558    1.000
    N2333    N        0.34683    0.65306    0.97368    1.000
    N2334    N        0.39772    0.67963    0.93281    1.000
    N2335    N        0.36732    0.72757    0.88443    1.000
    N2336    N        0.35058    0.73109    0.95379    1.000
    Si2337   Si       0.35733    0.68716    0.94842    1.000
    Si2338   Si       0.35860    0.81076    0.07404    1.000
    N2339    N        0.35997    0.76756    0.08801    1.000
    N2340    N        0.35260    0.83953    0.10614    1.000
    N2341    N        0.40019    0.81017    0.06153    1.000
    N2342    N        0.34737    0.88543    0.05516    1.000
    Si2343   Si       0.34993    0.88170    0.09819    1.000
    N2344    N        0.35804    0.95095    0.05815    1.000
    N2345    N        0.38881    0.90865    0.00707    1.000
    Si2346   Si       0.39302    0.94216    0.08257    1.000
    Si2347   Si       0.35155    0.92072    0.02705    1.000
    N2348    N        0.37917    0.91030    0.11167    1.000
    N2349    N        0.40133    0.98128    0.10004    1.000
    N2350    N        0.38723    0.87660    0.23905    1.000
    N2351    N        0.36379    0.81639    0.22100    1.000
    N2352    N        0.37009    0.79368    0.15822    1.000
    N2353    N        0.36103    0.86417    0.16967    1.000
    Si2354   Si       0.35527    0.85793    0.21295    1.000
    Si2355   Si       0.34893    0.83057    0.14756    1.000
    Si2356   Si       0.39524    0.79913    0.19371    1.000
    Si2357   Si       0.37869    0.76074    0.12863    1.000
    N2358    N        0.34590    0.92728    0.17362    1.000
    N2359    N        0.39619    0.96842    0.18033    1.000
    N2360    N        0.36727    0.94668    0.24084    1.000
    Si2361   Si       0.37985    0.90109    0.15530    1.000
    Si2362   Si       0.35763    0.96146    0.19954    1.000
    N2363    N        0.38082    0.78977    0.32333    1.000
    Si2364   Si       0.35672    0.79527    0.35938    1.000
    N2365    N        0.35967    0.76340    0.26648    1.000
    N2366    N        0.38521    0.89163    0.36662    1.000
    N2367    N        0.38320    0.98490    0.30389    1.000
    N2368    N        0.37315    0.91541    0.30273    1.000
    Si2369   Si       0.38518    0.91420    0.26090    1.000
    Si2370   Si       0.35355    0.95396    0.31285    1.000
    N2371    N        0.35255    0.95355    0.35681    1.000
    N2372    N        0.34408    0.86622    0.47804    1.000
    N2373    N        0.39156    0.81027    0.38220    1.000
    Si2374   Si       0.38479    0.81472    0.42373    1.000
    N2375    N        0.34607    0.79741    0.44016    1.000
    Si2376   Si       0.36173    0.88574    0.44389    1.000
    N2377    N        0.39843    0.85968    0.43379    1.000
    Si2378   Si       0.35040    0.91372    0.37625    1.000
    Si2379   Si       0.39136    0.93851    0.43720    1.000
    N2380    N        0.38883    0.97998    0.42400    1.000
    N2381    N        0.35592    0.92323    0.41776    1.000
    Si2382   Si       0.35761    0.98396    0.38953    1.000
    N2383    N        0.38196    0.91296    0.47138    1.000
    Si2384   Si       0.37289    0.78283    0.53605    1.000
    Si2385   Si       0.37010    0.79206    0.60357    1.000
    N2386    N        0.37312    0.83370    0.59443    1.000
    N2387    N        0.34808    0.81501    0.52070    1.000
    N2388    N        0.35060    0.77082    0.57159    1.000
    Si2389   Si       0.36991    0.84992    0.50812    1.000
    Si2390   Si       0.38835    0.87158    0.57498    1.000
    N2391    N        0.36966    0.88372    0.53569    1.000
    Si2392   Si       0.37628    0.98662    0.52634    1.000
    Si2393   Si       0.37368    0.98674    0.60130    1.000
    N2394    N        0.36985    0.89737    0.60421    1.000
    N2395    N        0.39360    0.97281    0.56404    1.000
    N2396    N        0.35115    0.95481    0.51380    1.000
    Si2397   Si       0.35214    0.91049    0.50324    1.000
    Si2398   Si       0.35426    0.93237    0.62384    1.000
    Si2399   Si       0.34965    0.86012    0.62239    1.000
    N2400    N        0.36522    0.85612    0.66299    1.000
    Si2401   Si       0.36519    0.81312    0.67404    1.000
    N2402    N        0.34645    0.79133    0.64067    1.000
    Si2403   Si       0.39376    0.88197    0.68189    1.000
    N2404    N        0.37021    0.91422    0.69835    1.000
    Si2405   Si       0.38467    0.93289    0.73273    1.000
    N2406    N        0.39040    0.97579    0.72733    1.000
    N2407    N        0.38921    0.95923    0.63359    1.000
    Si2408   Si       0.35421    0.00003    0.73383    1.000
    Si2409   Si       0.36214    0.84174    0.80390    1.000
    N2410    N        0.38600    0.78993    0.76948    1.000
    N2411    N        0.35361    0.80515    0.82773    1.000
    Si2412   Si       0.35987    0.77066    0.80134    1.000
    N2413    N        0.34581    0.87628    0.82474    1.000
    Si2414   Si       0.34855    0.79644    0.74870    1.000
    Si2415   Si       0.37274    0.88539    0.86141    1.000
    N2416    N        0.36299    0.90420    0.76350    1.000
    Si2417   Si       0.35132    0.91395    0.80296    1.000
    N2418    N        0.38372    0.92658    0.82984    1.000
    N2419    N        0.34132    0.99664    0.83718    1.000
    N2420    N        0.34293    0.99450    0.77514    1.000
    Si2421   Si       0.36388    0.80753    0.87278    1.000
    N2422    N        0.38509    0.84625    0.87592    1.000
    N2423    N        0.39184    0.77800    0.98572    1.000
    N2424    N        0.36831    0.83954    0.96123    1.000
    N2425    N        0.34914    0.78906    0.90995    1.000
    Si2426   Si       0.34911    0.76028    0.98573    1.000
    Si2427   Si       0.39928    0.97910    0.91218    1.000
    Si2428   Si       0.37343    0.88204    0.97385    1.000
    N2429    N        0.35754    0.96689    0.89778    1.000
    N2430    N        0.35488    0.91126    0.94596    1.000
    Si2431   Si       0.35556    0.92336    0.90560    1.000
    N2432    N        0.39637    0.91105    0.88784    1.000
    N2433    N        0.42020    0.11077    0.04085    1.000
    Si2434   Si       0.41429    0.09780    0.08307    1.000
    Si2435   Si       0.40463    0.08852    0.00404    1.000
    N2436    N        0.45842    0.10971    0.09385    1.000
    N2437    N        0.40535    0.05421    0.08169    1.000
    N2438    N        0.43391    0.16918    0.07384    1.000
    N2439    N        0.42660    0.17462    0.01035    1.000
    Si2440   Si       0.45323    0.15088    0.11142    1.000
    Si2441   Si       0.45199    0.25134    0.01311    1.000
    Si2442   Si       0.40453    0.15318    0.04191    1.000
    N2443    N        0.41208    0.09191    0.16730    1.000
    Si2444   Si       0.41537    0.04104    0.23413    1.000
    Si2445   Si       0.45246    0.08726    0.18431    1.000
    N2446    N        0.45255    0.05547    0.21628    1.000
    N2447    N        0.43859    0.17343    0.21513    1.000
    N2448    N        0.44735    0.21786    0.16470    1.000
    Si2449   Si       0.40605    0.17315    0.24281    1.000
    Si2450   Si       0.42060    0.18575    0.17774    1.000
    N2451    N        0.42612    0.15554    0.14802    1.000
    N2452    N        0.42946    0.04051    0.33512    1.000
    Si2453   Si       0.43555    0.07096    0.30176    1.000
    N2454    N        0.44511    0.10946    0.32243    1.000
    Si2455   Si       0.44986    0.10378    0.36580    1.000
    N2456    N        0.40423    0.06228    0.27092    1.000
    Si2457   Si       0.44624    0.14137    0.29349    1.000
    N2458    N        0.43486    0.22068    0.31910    1.000
    Si2459   Si       0.43661    0.23661    0.35952    1.000
    N2460    N        0.40548    0.14923    0.27999    1.000
    Si2461   Si       0.43131    0.05619    0.41695    1.000
    N2462    N        0.41658    0.08048    0.38359    1.000
    N2463    N        0.44915    0.02107    0.40092    1.000
    N2464    N        0.43827    0.18586    0.44354    1.000
    N2465    N        0.40871    0.15493    0.48968    1.000
    N2466    N        0.42772    0.25510    0.43984    1.000
    Si2467   Si       0.44173    0.17195    0.40170    1.000
    Si2468   Si       0.45121    0.16496    0.47857    1.000
    Si2469   Si       0.41222    0.21894    0.45836    1.000
    N2470    N        0.45941    0.20699    0.38102    1.000
    Si2471   Si       0.44473    0.04849    0.58080    1.000
    N2472    N        0.43662    0.08945    0.58635    1.000
    N2473    N        0.41322    0.03980    0.55182    1.000
    Si2474   Si       0.42448    0.03800    0.51128    1.000
    N2475    N        0.43027    0.07851    0.49717    1.000
    Si2476   Si       0.45499    0.23332    0.50791    1.000
    N2477    N        0.41311    0.22982    0.50082    1.000
    N2478    N        0.45079    0.25815    0.54982    1.000
    N2479    N        0.44836    0.02952    0.61939    1.000
    N2480    N        0.42390    0.02353    0.68600    1.000
    Si2481   Si       0.44361    0.10880    0.69493    1.000
    N2482    N        0.41778    0.08284    0.71780    1.000
    N2483    N        0.45367    0.08556    0.65784    1.000
    Si2484   Si       0.45538    0.04167    0.66078    1.000
    Si2485   Si       0.45941    0.10661    0.62011    1.000
    Si2486   Si       0.45598    0.25237    0.63459    1.000
    N2487    N        0.43489    0.21591    0.62565    1.000
    N2488    N        0.41606    0.14316    0.68853    1.000
    N2489    N        0.44026    0.14552    0.62716    1.000
    Si2490   Si       0.40184    0.14101    0.64680    1.000
    N2491    N        0.43879    0.20472    0.71158    1.000
    Si2492   Si       0.41418    0.17132    0.72397    1.000
    Si2493   Si       0.41636    0.23982    0.69408    1.000
    N2494    N        0.41843    0.05248    0.85062    1.000
    N2495    N        0.42122    0.08205    0.78939    1.000
    Si2496   Si       0.43056    0.01318    0.84100    1.000
    Si2497   Si       0.40895    0.10404    0.75431    1.000
    Si2498   Si       0.41270    0.16335    0.83236    1.000
    Si2499   Si       0.45054    0.21369    0.79644    1.000
    N2500    N        0.41247    0.19600    0.80279    1.000
    N2501    N        0.44768    0.24934    0.77329    1.000
    N2502    N        0.43009    0.14217    0.75281    1.000
    N2503    N        0.41085    0.18517    0.87116    1.000
    N2504    N        0.45521    0.15500    0.82317    1.000
    N2505    N        0.46243    0.23146    0.83568    1.000
    N2506    N        0.43024    0.05619    0.98263    1.000
    Si2507   Si       0.44511    0.07193    0.88059    1.000
    Si2508   Si       0.42462    0.03768    0.94401    1.000
    N2509    N        0.42221    0.07247    0.91735    1.000
    N2510    N        0.40410    0.11849    0.97187    1.000
    N2511    N        0.45731    0.00906    0.93616    1.000
    Si2512   Si       0.42873    0.15615    0.97074    1.000
    Si2513   Si       0.42784    0.22929    0.94251    1.000
    N2514    N        0.41671    0.18557    0.94050    1.000
    Si2515   Si       0.44767    0.21156    0.87239    1.000
    N2516    N        0.43952    0.24238    0.90177    1.000
    N2517    N        0.43973    0.27563    0.08693    1.000
    Si2518   Si       0.43875    0.32563    0.01321    1.000
    N2519    N        0.40993    0.32521    0.04583    1.000
    Si2520   Si       0.40643    0.28277    0.05863    1.000
    Si2521   Si       0.43342    0.30502    0.11761    1.000
    N2522    N        0.41009    0.25961    0.02137    1.000
    Si2523   Si       0.44274    0.40140    0.02082    1.000
    N2524    N        0.42608    0.49621    0.08869    1.000
    N2525    N        0.41996    0.49713    0.01609    1.000
    N2526    N        0.45627    0.43709    0.11586    1.000
    Si2527   Si       0.42260    0.46504    0.11870    1.000
    N2528    N        0.40142    0.39108    0.01569    1.000
    N2529    N        0.45815    0.43539    0.04478    1.000
    N2530    N        0.42524    0.28135    0.15456    1.000
    N2531    N        0.40631    0.36117    0.21740    1.000
    Si2532   Si       0.44661    0.25727    0.18199    1.000
    N2533    N        0.42676    0.25690    0.22140    1.000
    Si2534   Si       0.46237    0.27412    0.24057    1.000
    N2535    N        0.44118    0.41748    0.18683    1.000
    Si2536   Si       0.44019    0.38778    0.21785    1.000
    Si2537   Si       0.41375    0.44996    0.19138    1.000
    N2538    N        0.42561    0.47972    0.16103    1.000
    N2539    N        0.41790    0.46971    0.23098    1.000
    N2540    N        0.43414    0.34066    0.35132    1.000
    Si2541   Si       0.41422    0.30131    0.36059    1.000
    N2542    N        0.45037    0.27727    0.35659    1.000
    Si2543   Si       0.40896    0.36234    0.32365    1.000
    N2544    N        0.45048    0.31479    0.24861    1.000
    Si2545   Si       0.41015    0.33215    0.24828    1.000
    N2546    N        0.43225    0.39763    0.31498    1.000
    N2547    N        0.43028    0.46904    0.29677    1.000
    Si2548   Si       0.41809    0.43768    0.32578    1.000
    Si2549   Si       0.44826    0.45598    0.25835    1.000
    N2550    N        0.44552    0.41009    0.25455    1.000
    N2551    N        0.42006    0.43925    0.36803    1.000
    Si2552   Si       0.43965    0.35844    0.43762    1.000
    Si2553   Si       0.44652    0.28628    0.46329    1.000
    N2554    N        0.45110    0.38022    0.40220    1.000
    N2555    N        0.41818    0.29831    0.49327    1.000
    Si2556   Si       0.42140    0.42497    0.47124    1.000
    N2557    N        0.44514    0.46171    0.48195    1.000
    Si2558   Si       0.42816    0.50176    0.48759    1.000
    Si2559   Si       0.44415    0.42204    0.40219    1.000
    N2560    N        0.45048    0.39011    0.46845    1.000
    N2561    N        0.41048    0.42930    0.43063    1.000
    N2562    N        0.42238    0.31662    0.55663    1.000
    Si2563   Si       0.41516    0.27942    0.53098    1.000
    N2564    N        0.43949    0.28806    0.61437    1.000
    Si2565   Si       0.45428    0.29610    0.57584    1.000
    N2566    N        0.41403    0.38879    0.56247    1.000
    N2567    N        0.44431    0.45151    0.57249    1.000
    Si2568   Si       0.42149    0.48781    0.56010    1.000
    N2569    N        0.40527    0.50410    0.60022    1.000
    Si2570   Si       0.40584    0.42837    0.57408    1.000
    Si2571   Si       0.40979    0.35289    0.67854    1.000
    Si2572   Si       0.43730    0.32257    0.63705    1.000
    N2573    N        0.44743    0.33014    0.68028    1.000
    N2574    N        0.45302    0.26216    0.67663    1.000
    N2575    N        0.42651    0.49162    0.73635    1.000
    N2576    N        0.40038    0.46426    0.66687    1.000
    N2577    N        0.45350    0.42710    0.71409    1.000
    N2578    N        0.42165    0.39283    0.66802    1.000
    N2579    N        0.41490    0.30902    0.77951    1.000
    Si2580   Si       0.44842    0.33172    0.76404    1.000
    Si2581   Si       0.41126    0.26841    0.76558    1.000
    N2582    N        0.41040    0.35706    0.83437    1.000
    Si2583   Si       0.45131    0.34122    0.83722    1.000
    N2584    N        0.45521    0.30005    0.85157    1.000
    N2585    N        0.43207    0.36785    0.74461    1.000
    N2586    N        0.43613    0.42534    0.78242    1.000
    N2587    N        0.42948    0.43206    0.84967    1.000
    Si2588   Si       0.41936    0.50426    0.78037    1.000
    Si2589   Si       0.45305    0.44643    0.81589    1.000
    N2590    N        0.45451    0.48830    0.79772    1.000
    Si2591   Si       0.45445    0.40344    0.74980    1.000
    N2592    N        0.41684    0.31140    0.97700    1.000
    Si2593   Si       0.43877    0.28659    0.89068    1.000
    N2594    N        0.43743    0.36249    0.93001    1.000
    Si2595   Si       0.40593    0.33412    0.94175    1.000
    Si2596   Si       0.43391    0.45544    0.88735    1.000
    N2597    N        0.46017    0.40968    0.98172    1.000
    N2598    N        0.46039    0.42828    0.91401    1.000
    Si2599   Si       0.44037    0.40407    0.94390    1.000
    N2600    N        0.44093    0.49842    0.95074    1.000
    N2601    N        0.45233    0.49304    0.88201    1.000
    N2602    N        0.42782    0.57890    0.02684    1.000
    N2603    N        0.45514    0.63017    0.06903    1.000
    N2604    N        0.45729    0.56411    0.08963    1.000
    Si2605   Si       0.42106    0.62925    0.09369    1.000
    Si2606   Si       0.41467    0.69842    0.02885    1.000
    N2607    N        0.45469    0.69985    0.04608    1.000
    Si2608   Si       0.42848    0.75663    0.99996    1.000
    N2609    N        0.45855    0.57942    0.22268    1.000
    Si2610   Si       0.41540    0.62649    0.17089    1.000
    N2611    N        0.43912    0.54108    0.14826    1.000
    Si2612   Si       0.41480    0.57428    0.22457    1.000
    N2613    N        0.42701    0.61150    0.13094    1.000
    Si2614   Si       0.40924    0.51965    0.16786    1.000
    Si2615   Si       0.45512    0.57845    0.12944    1.000
    N2616    N        0.40828    0.53342    0.21024    1.000
    Si2617   Si       0.44920    0.74476    0.20524    1.000
    Si2618   Si       0.46263    0.67993    0.17544    1.000
    N2619    N        0.45340    0.63959    0.18548    1.000
    N2620    N        0.43961    0.70093    0.14529    1.000
    Si2621   Si       0.45153    0.74245    0.13164    1.000
    N2622    N        0.45016    0.70018    0.21277    1.000
    N2623    N        0.44528    0.52985    0.33363    1.000
    N2624    N        0.42541    0.61477    0.36340    1.000
    Si2625   Si       0.44018    0.51504    0.29265    1.000
    Si2626   Si       0.40453    0.53539    0.34688    1.000
    N2627    N        0.42195    0.75069    0.35437    1.000
    N2628    N        0.42178    0.68415    0.35284    1.000
    N2629    N        0.41776    0.74286    0.28207    1.000
    N2630    N        0.42161    0.64980    0.25547    1.000
    Si2631   Si       0.44311    0.71864    0.36897    1.000
    Si2632   Si       0.44779    0.65188    0.36613    1.000
    Si2633   Si       0.45682    0.67287    0.24719    1.000
    N2634    N        0.43578    0.59603    0.43210    1.000
    Si2635   Si       0.43968    0.58259    0.39083    1.000
    Si2636   Si       0.44903    0.57683    0.47065    1.000
    N2637    N        0.44569    0.53338    0.46093    1.000
    N2638    N        0.40938    0.55410    0.38492    1.000
    N2639    N        0.45557    0.72894    0.40936    1.000
    N2640    N        0.40593    0.70903    0.46392    1.000
    Si2641   Si       0.43896    0.68839    0.48137    1.000
    Si2642   Si       0.42468    0.63886    0.43291    1.000
    N2643    N        0.43009    0.64658    0.47663    1.000
    N2644    N        0.45627    0.66058    0.40920    1.000
    N2645    N        0.42471    0.56988    0.57814    1.000
    Si2646   Si       0.44651    0.60673    0.57891    1.000
    Si2647   Si       0.41517    0.55580    0.53829    1.000
    Si2648   Si       0.40927    0.54679    0.61239    1.000
    N2649    N        0.42444    0.58355    0.50533    1.000
    Si2650   Si       0.41251    0.62591    0.51227    1.000
    N2651    N        0.42995    0.51611    0.52828    1.000
    N2652    N        0.45159    0.62964    0.61658    1.000
    N2653    N        0.42992    0.63818    0.55108    1.000
    N2654    N        0.43034    0.69818    0.52212    1.000
    Si2655   Si       0.45568    0.67449    0.54829    1.000
    N2656    N        0.40749    0.72993    0.56962    1.000
    Si2657   Si       0.41151    0.56284    0.68397    1.000
    N2658    N        0.43308    0.55309    0.64769    1.000
    N2659    N        0.43775    0.56308    0.71758    1.000
    N2660    N        0.41331    0.66126    0.69258    1.000
    Si2661   Si       0.45040    0.67294    0.62140    1.000
    Si2662   Si       0.40999    0.70204    0.67691    1.000
    Si2663   Si       0.45589    0.65032    0.69550    1.000
    N2664    N        0.43365    0.74143    0.68397    1.000
    N2665    N        0.41894    0.70012    0.63380    1.000
    N2666    N        0.42883    0.61935    0.83178    1.000
    N2667    N        0.42738    0.54847    0.78885    1.000
    Si2668   Si       0.41240    0.58543    0.80879    1.000
    Si2669   Si       0.41344    0.56821    0.75284    1.000
    N2670    N        0.40540    0.60668    0.77053    1.000
    Si2671   Si       0.46037    0.62684    0.86054    1.000
    N2672    N        0.44081    0.74670    0.77794    1.000
    N2673    N        0.42453    0.68474    0.80761    1.000
    N2674    N        0.43955    0.73083    0.85531    1.000
    Si2675   Si       0.40660    0.71817    0.78480    1.000
    Si2676   Si       0.45706    0.69718    0.83133    1.000
    Si2677   Si       0.40288    0.65253    0.82625    1.000
    Si2678   Si       0.43280    0.58793    0.98411    1.000
    Si2679   Si       0.43401    0.52120    0.91442    1.000
    N2680    N        0.41014    0.55704    0.96070    1.000
    N2681    N        0.41188    0.62497    0.97736    1.000
    N2682    N        0.44223    0.62888    0.90032    1.000
    Si2683   Si       0.40933    0.51226    0.97630    1.000
    N2684    N        0.44130    0.73490    0.92254    1.000
    N2685    N        0.42043    0.71502    0.98973    1.000
    Si2686   Si       0.43144    0.70222    0.94816    1.000
    Si2687   Si       0.40254    0.64619    0.90553    1.000
    Si2688   Si       0.43768    0.81539    0.04072    1.000
    N2689    N        0.44464    0.77153    0.03962    1.000
    Si2690   Si       0.40824    0.76781    0.06968    1.000
    N2691    N        0.43207    0.83045    0.99787    1.000
    N2692    N        0.41832    0.76190    0.11164    1.000
    Si2693   Si       0.45859    0.92742    0.09307    1.000
    Si2694   Si       0.42746    0.92507    0.01896    1.000
    N2695    N        0.42791    0.92714    0.06234    1.000
    N2696    N        0.43346    0.96821    0.00879    1.000
    N2697    N        0.46080    0.89739    0.00445    1.000
    N2698    N        0.42570    0.83142    0.19908    1.000
    Si2699   Si       0.44811    0.85967    0.17447    1.000
    N2700    N        0.40939    0.76386    0.21105    1.000
    Si2701   Si       0.41777    0.84670    0.24035    1.000
    N2702    N        0.46547    0.76157    0.16741    1.000
    Si2703   Si       0.45617    0.91469    0.24401    1.000
    N2704    N        0.45367    0.99565    0.16736    1.000
    Si2705   Si       0.43405    0.97653    0.20216    1.000
    N2706    N        0.42213    0.99809    0.23823    1.000
    Si2707   Si       0.41683    0.98292    0.14222    1.000
    N2708    N        0.45215    0.93713    0.20811    1.000
    N2709    N        0.44442    0.94533    0.13337    1.000
    N2710    N        0.42017    0.89235    0.16633    1.000
    N2711    N        0.44611    0.81014    0.32804    1.000
    N2712    N        0.41295    0.80885    0.26210    1.000
    Si2713   Si       0.42866    0.79320    0.36489    1.000
    Si2714   Si       0.40897    0.81752    0.30454    1.000
    N2715    N        0.45278    0.87110    0.25303    1.000
    N2716    N        0.40366    0.85939    0.30843    1.000
    Si2717   Si       0.40059    0.76871    0.25277    1.000
    N2718    N        0.44438    0.91291    0.33297    1.000
    N2719    N        0.42497    0.93213    0.26855    1.000
    N2720    N        0.44360    0.98394    0.30538    1.000
    Si2721   Si       0.41392    0.97400    0.27459    1.000
    Si2722   Si       0.40804    0.00147    0.33674    1.000
    N2723    N        0.42899    0.97194    0.36439    1.000
    Si2724   Si       0.45658    0.95273    0.33339    1.000
    Si2725   Si       0.40343    0.89556    0.32732    1.000
    N2726    N        0.40760    0.77996    0.44128    1.000
    N2727    N        0.44872    0.86315    0.38101    1.000
    Si2728   Si       0.44811    0.76721    0.42977    1.000
    Si2729   Si       0.43313    0.86358    0.46436    1.000
    N2730    N        0.45660    0.79443    0.39648    1.000
    Si2731   Si       0.41376    0.88142    0.39845    1.000
    N2732    N        0.45385    0.96808    0.44659    1.000
    N2733    N        0.40236    0.00065    0.49380    1.000
    Si2734   Si       0.44176    0.98016    0.48702    1.000
    N2735    N        0.42627    0.92111    0.41749    1.000
    Si2736   Si       0.43304    0.98071    0.40763    1.000
    N2737    N        0.45481    0.89951    0.47603    1.000
    N2738    N        0.42925    0.86147    0.56282    1.000
    Si2739   Si       0.43516    0.83047    0.53158    1.000
    N2740    N        0.41400    0.79477    0.54956    1.000
    Si2741   Si       0.43100    0.76490    0.57599    1.000
    N2742    N        0.40692    0.76820    0.61544    1.000
    N2743    N        0.41136    0.84482    0.49791    1.000
    N2744    N        0.43401    0.92379    0.58869    1.000
    Si2745   Si       0.43410    0.95748    0.55989    1.000
    N2746    N        0.44327    0.94998    0.51903    1.000
    Si2747   Si       0.45760    0.88900    0.58047    1.000
    N2748    N        0.46039    0.99030    0.57025    1.000
    N2749    N        0.40418    0.85824    0.71932    1.000
    Si2750   Si       0.43236    0.82750    0.70288    1.000
    Si2751   Si       0.42738    0.77360    0.65434    1.000
    N2752    N        0.44822    0.79445    0.72706    1.000
    N2753    N        0.40673    0.80347    0.67763    1.000
    Si2754   Si       0.43163    0.99156    0.71482    1.000
    Si2755   Si       0.42489    0.93500    0.63068    1.000
    N2756    N        0.42287    0.91421    0.74365    1.000
    N2757    N        0.42495    0.89902    0.65631    1.000
    N2758    N        0.45948    0.96124    0.63745    1.000
    Si2759   Si       0.43857    0.84626    0.81581    1.000
    Si2760   Si       0.42898    0.78672    0.76580    1.000
    N2761    N        0.44839    0.83427    0.85561    1.000
    N2762    N        0.45364    0.81054    0.79334    1.000
    N2763    N        0.40008    0.78534    0.86911    1.000
    N2764    N        0.40154    0.85454    0.79301    1.000
    N2765    N        0.46305    0.87721    0.80067    1.000
    Si2766   Si       0.39976    0.87896    0.75572    1.000
    Si2767   Si       0.41443    0.93960    0.85546    1.000
    Si2768   Si       0.45228    0.99526    0.78581    1.000
    N2769    N        0.41666    0.98205    0.86959    1.000
    N2770    N        0.45561    0.92594    0.84624    1.000
    N2771    N        0.41109    0.00058    0.80429    1.000
    N2772    N        0.41801    0.87953    0.95355    1.000
    Si2773   Si       0.44982    0.86533    0.97926    1.000
    Si2774   Si       0.42038    0.82100    0.88637    1.000
    Si2775   Si       0.40417    0.81783    0.96702    1.000
    N2776    N        0.42476    0.81300    0.92885    1.000
    Si2777   Si       0.45197    0.77677    0.93211    1.000
    N2778    N        0.42644    0.94883    0.92996    1.000
    Si2779   Si       0.42509    0.90610    0.92020    1.000
    N2780    N        0.48409    0.07981    0.02598    1.000
    N2781    N        0.48820    0.02112    0.00910    1.000
    N2782    N        0.50608    0.05793    0.08472    1.000
    Si2783   Si       0.48700    0.08212    0.11532    1.000
    Si2784   Si       0.51028    0.04393    0.04148    1.000
    Si2785   Si       0.46790    0.11256    0.04831    1.000
    N2786    N        0.48578    0.15006    0.04040    1.000
    N2787    N        0.49238    0.23013    0.11476    1.000
    N2788    N        0.46638    0.22706    0.04534    1.000
    Si2789   Si       0.47477    0.25130    0.08230    1.000
    Si2790   Si       0.45645    0.18534    0.04083    1.000
    Si2791   Si       0.48426    0.02623    0.16943    1.000
    N2792    N        0.47729    0.12347    0.18682    1.000
    N2793    N        0.47227    0.06411    0.15271    1.000
    N2794    N        0.50713    0.02022    0.20425    1.000
    Si2795   Si       0.49041    0.03800    0.24028    1.000
    N2796    N        0.51904    0.10609    0.13338    1.000
    N2797    N        0.51841    0.07327    0.23968    1.000
    N2798    N        0.50533    0.01129    0.13531    1.000
    Si2799   Si       0.48691    0.20638    0.15033    1.000
    Si2800   Si       0.47248    0.14725    0.22417    1.000
    N2801    N        0.51421    0.21637    0.18454    1.000
    Si2802   Si       0.50769    0.13815    0.15914    1.000
    N2803    N        0.50992    0.16513    0.23660    1.000
    N2804    N        0.49136    0.16760    0.12846    1.000
    Si2805   Si       0.49417    0.09381    0.26985    1.000
    N2806    N        0.47253    0.05701    0.28366    1.000
    Si2807   Si       0.47352    0.01683    0.30229    1.000
    N2808    N        0.49258    0.01423    0.34103    1.000
    Si2809   Si       0.46328    0.03666    0.36350    1.000
    N2810    N        0.48254    0.07479    0.37009    1.000
    N2811    N        0.46308    0.12031    0.25748    1.000
    N2812    N        0.52054    0.12140    0.29110    1.000
    N2813    N        0.47498    0.17683    0.29197    1.000
    N2814    N        0.50604    0.22605    0.33255    1.000
    Si2815   Si       0.47478    0.21945    0.30268    1.000
    Si2816   Si       0.51351    0.16362    0.28066    1.000
    N2817    N        0.47638    0.25551    0.27684    1.000
    Si2818   Si       0.48492    0.04377    0.47108    1.000
    N2819    N        0.46438    0.06949    0.44097    1.000
    Si2820   Si       0.48130    0.10876    0.43027    1.000
    N2821    N        0.47197    0.12895    0.46815    1.000
    N2822    N        0.46139    0.13207    0.39807    1.000
    N2823    N        0.50130    0.07387    0.49739    1.000
    N2824    N        0.51648    0.01940    0.45846    1.000
    Si2825   Si       0.46734    0.10069    0.50272    1.000
    Si2826   Si       0.50182    0.21785    0.37367    1.000
    N2827    N        0.51191    0.25816    0.38606    1.000
    N2828    N        0.48234    0.05339    0.55910    1.000
    N2829    N        0.49942    0.11289    0.60574    1.000
    Si2830   Si       0.49898    0.09487    0.56356    1.000
    N2831    N        0.48137    0.12497    0.53602    1.000
    Si2832   Si       0.48553    0.01209    0.53851    1.000
    N2833    N        0.46273    0.01893    0.50146    1.000
    N2834    N        0.47005    0.19129    0.50879    1.000
    Si2835   Si       0.49331    0.16750    0.53873    1.000
    Si2836   Si       0.48070    0.23127    0.57172    1.000
    N2837    N        0.47688    0.18906    0.57581    1.000
    N2838    N        0.49105    0.25128    0.60927    1.000
    Si2839   Si       0.46262    0.18261    0.61672    1.000
    Si2840   Si       0.49667    0.02643    0.72782    1.000
    N2841    N        0.49205    0.03392    0.68404    1.000
    N2842    N        0.48138    0.11514    0.71286    1.000
    N2843    N        0.45846    0.01123    0.74619    1.000
    Si2844   Si       0.51115    0.13815    0.73275    1.000
    N2845    N        0.49615    0.18415    0.64309    1.000
    N2846    N        0.50787    0.17670    0.71242    1.000
    N2847    N        0.49965    0.24292    0.73173    1.000
    Si2848   Si       0.47960    0.20556    0.72809    1.000
    Si2849   Si       0.50151    0.03110    0.84711    1.000
    Si2850   Si       0.50910    0.09410    0.86766    1.000
    N2851    N        0.51374    0.06931    0.82957    1.000
    N2852    N        0.46982    0.01247    0.82403    1.000
    N2853    N        0.50434    0.13059    0.77606    1.000
    Si2854   Si       0.47914    0.14869    0.85941    1.000
    N2855    N        0.47442    0.19052    0.76848    1.000
    Si2856   Si       0.46339    0.15072    0.78241    1.000
    N2857    N        0.46784    0.10907    0.87563    1.000
    N2858    N        0.48135    0.04562    0.88170    1.000
    N2859    N        0.49419    0.06259    0.95426    1.000
    Si2860   Si       0.49113    0.03190    0.92376    1.000
    Si2861   Si       0.47448    0.05769    0.99150    1.000
    N2862    N        0.51514    0.18769    0.99076    1.000
    N2863    N        0.47974    0.18527    0.88408    1.000
    Si2864   Si       0.51577    0.19905    0.90627    1.000
    Si2865   Si       0.50033    0.22658    0.97543    1.000
    N2866    N        0.45684    0.23151    0.97476    1.000
    N2867    N        0.47178    0.14663    0.96089    1.000
    N2868    N        0.51022    0.23499    0.93295    1.000
    Si2869   Si       0.51446    0.15361    0.96319    1.000
    Si2870   Si       0.50275    0.36721    0.03994    1.000
    Si2871   Si       0.49666    0.36210    0.11448    1.000
    N2872    N        0.46598    0.29275    0.01579    1.000
    Si2873   Si       0.50799    0.30012    0.01216    1.000
    N2874    N        0.51843    0.26844    0.07369    1.000
    N2875    N        0.46323    0.36044    0.02293    1.000
    N2876    N        0.46466    0.33340    0.11570    1.000
    N2877    N        0.49491    0.38733    0.07998    1.000
    Si2878   Si       0.48393    0.42845    0.08352    1.000
    Si2879   Si       0.45731    0.47748    0.02731    1.000
    Si2880   Si       0.50905    0.37262    0.18909    1.000
    N2881    N        0.48330    0.27119    0.20238    1.000
    N2882    N        0.47681    0.36586    0.21554    1.000
    N2883    N        0.49155    0.38665    0.14994    1.000
    N2884    N        0.49925    0.45641    0.16420    1.000
    N2885    N        0.48861    0.46241    0.24258    1.000
    Si2886   Si       0.51613    0.47662    0.12991    1.000
    Si2887   Si       0.47039    0.42386    0.15603    1.000
    Si2888   Si       0.50676    0.47655    0.20340    1.000
    N2889    N        0.49257    0.36509    0.28398    1.000
    Si2890   Si       0.49192    0.29077    0.36286    1.000
    N2891    N        0.50437    0.30434    0.32224    1.000
    Si2892   Si       0.51095    0.28267    0.28549    1.000
    N2893    N        0.49406    0.37993    0.34597    1.000
    Si2894   Si       0.51390    0.34938    0.31907    1.000
    Si2895   Si       0.48562    0.34086    0.24823    1.000
    N2896    N        0.51864    0.31286    0.25387    1.000
    Si2897   Si       0.46738    0.39836    0.29186    1.000
    N2898    N        0.49312    0.43220    0.30289    1.000
    Si2899   Si       0.51303    0.41845    0.33799    1.000
    N2900    N        0.51609    0.45107    0.36722    1.000
    Si2901   Si       0.51762    0.45476    0.27330    1.000
    Si2902   Si       0.46829    0.35629    0.37195    1.000
    Si2903   Si       0.50408    0.32661    0.43145    1.000
    N2904    N        0.50102    0.32756    0.38649    1.000
    N2905    N        0.47695    0.26351    0.48583    1.000
    N2906    N        0.51926    0.36257    0.44725    1.000
    N2907    N        0.46181    0.32211    0.44168    1.000
    N2908    N        0.47563    0.44587    0.42025    1.000
    Si2909   Si       0.49278    0.38522    0.47376    1.000
    N2910    N        0.50085    0.49482    0.44689    1.000
    N2911    N        0.50903    0.42577    0.47747    1.000
    Si2912   Si       0.48241    0.45706    0.46079    1.000
    Si2913   Si       0.50557    0.47658    0.40259    1.000
    N2914    N        0.49127    0.31672    0.57072    1.000
    Si2915   Si       0.49869    0.35515    0.59398    1.000
    N2916    N        0.49759    0.37106    0.51227    1.000
    N2917    N        0.46493    0.35054    0.62404    1.000
    N2918    N        0.49275    0.39646    0.57959    1.000
    Si2919   Si       0.48047    0.43550    0.59341    1.000
    Si2920   Si       0.51836    0.38912    0.54420    1.000
    N2921    N        0.51373    0.46236    0.58807    1.000
    N2922    N        0.50896    0.31352    0.68054    1.000
    Si2923   Si       0.47188    0.29670    0.69614    1.000
    Si2924   Si       0.49204    0.34976    0.65785    1.000
    N2925    N        0.46937    0.30337    0.73947    1.000
    Si2926   Si       0.46078    0.46776    0.72482    1.000
    Si2927   Si       0.49123    0.47290    0.65300    1.000
    N2928    N        0.47192    0.43657    0.63676    1.000
    Si2929   Si       0.45986    0.41384    0.67284    1.000
    N2930    N        0.47871    0.48874    0.69279    1.000
    N2931    N        0.49794    0.38997    0.67654    1.000
    N2932    N        0.49106    0.51012    0.63128    1.000
    N2933    N        0.47315    0.34268    0.79842    1.000
    N2934    N        0.50705    0.27704    0.79944    1.000
    Si2935   Si       0.48302    0.27035    0.83561    1.000
    Si2936   Si       0.48563    0.27141    0.76228    1.000
    Si2937   Si       0.50844    0.36694    0.78890    1.000
    N2938    N        0.46969    0.36907    0.86827    1.000
    N2939    N        0.51298    0.26345    0.87094    1.000
    Si2940   Si       0.50148    0.39835    0.85508    1.000
    N2941    N        0.49423    0.43508    0.82939    1.000
    N2942    N        0.49546    0.39700    0.76196    1.000
    Si2943   Si       0.49271    0.49636    0.77913    1.000
    N2944    N        0.49592    0.46336    0.75092    1.000
    Si2945   Si       0.47220    0.34832    0.90783    1.000
    N2946    N        0.47196    0.30418    0.91360    1.000
    Si2947   Si       0.50534    0.27469    0.91363    1.000
    N2948    N        0.50550    0.37009    0.92651    1.000
    N2949    N        0.51196    0.32664    0.97926    1.000
    N2950    N        0.48690    0.46997    0.99590    1.000
    Si2951   Si       0.48249    0.49662    0.96250    1.000
    N2952    N        0.50748    0.49349    0.92715    1.000
    Si2953   Si       0.49746    0.42676    0.99391    1.000
    Si2954   Si       0.50048    0.41372    0.92008    1.000
    Si2955   Si       0.48938    0.50909    0.89266    1.000
    N2956    N        0.49672    0.58038    0.03457    1.000
    Si2957   Si       0.50241    0.53662    0.02101    1.000
    N2958    N        0.47647    0.51173    0.04766    1.000
    Si2959   Si       0.46288    0.52017    0.08784    1.000
    Si2960   Si       0.46124    0.58880    0.05425    1.000
    N2961    N        0.48944    0.50729    0.12038    1.000
    N2962    N        0.50785    0.67929    0.08376    1.000
    Si2963   Si       0.47953    0.74053    0.05307    1.000
    Si2964   Si       0.47855    0.66602    0.05625    1.000
    N2965    N        0.49876    0.65630    0.01843    1.000
    N2966    N        0.48293    0.73572    0.10150    1.000
    N2967    N        0.50655    0.73381    0.01726    1.000
    Si2968   Si       0.50535    0.70177    0.11947    1.000
    Si2969   Si       0.51825    0.69325    0.00659    1.000
    N2970    N        0.49403    0.57347    0.14856    1.000
    Si2971   Si       0.48320    0.54349    0.22880    1.000
    N2972    N        0.49044    0.51620    0.19733    1.000
    Si2973   Si       0.48362    0.53183    0.15646    1.000
    Si2974   Si       0.47979    0.61617    0.21114    1.000
    N2975    N        0.47398    0.75487    0.23846    1.000
    N2976    N        0.50006    0.67751    0.15414    1.000
    N2977    N        0.48709    0.64266    0.24513    1.000
    Si2978   Si       0.48139    0.53849    0.35411    1.000
    N2979    N        0.47216    0.52338    0.26684    1.000
    N2980    N        0.51388    0.54507    0.32398    1.000
    Si2981   Si       0.51467    0.52844    0.28264    1.000
    N2982    N        0.48206    0.71289    0.34963    1.000
    N2983    N        0.48506    0.64677    0.34273    1.000
    Si2984   Si       0.48935    0.68290    0.31731    1.000
    N2985    N        0.46990    0.69486    0.28193    1.000
    Si2986   Si       0.50535    0.74913    0.34219    1.000
    Si2987   Si       0.46103    0.73780    0.27632    1.000
    N2988    N        0.47990    0.57638    0.37584    1.000
    Si2989   Si       0.47677    0.52763    0.42989    1.000
    N2990    N        0.50425    0.56047    0.43461    1.000
    N2991    N        0.48566    0.59312    0.48801    1.000
    N2992    N        0.48145    0.51175    0.38946    1.000
    Si2993   Si       0.51669    0.58238    0.39925    1.000
    Si2994   Si       0.50681    0.67559    0.48872    1.000
    Si2995   Si       0.48071    0.69513    0.42274    1.000
    Si2996   Si       0.49833    0.74133    0.47985    1.000
    N2997    N        0.47840    0.70154    0.46728    1.000
    Si2998   Si       0.49410    0.61388    0.52355    1.000
    N2999    N        0.48595    0.59936    0.56277    1.000
    Si3000   Si       0.51375    0.58038    0.58920    1.000
    Si3001   Si       0.49975    0.71968    0.59313    1.000
    N3002    N        0.48543    0.65741    0.51934    1.000
    N3003    N        0.47171    0.68729    0.58593    1.000
    N3004    N        0.46889    0.75205    0.58924    1.000
    N3005    N        0.49234    0.57502    0.62462    1.000
    Si3006   Si       0.47671    0.54440    0.65186    1.000
    Si3007   Si       0.47493    0.58376    0.71412    1.000
    Si3008   Si       0.48257    0.61223    0.64418    1.000
    N3009    N        0.49944    0.55686    0.68837    1.000
    Si3010   Si       0.50837    0.51652    0.70619    1.000
    N3011    N        0.46371    0.61160    0.68312    1.000
    N3012    N        0.51842    0.63246    0.64721    1.000
    Si3013   Si       0.51400    0.67657    0.65676    1.000
    N3014    N        0.48373    0.72747    0.72887    1.000
    Si3015   Si       0.50952    0.69325    0.72387    1.000
    N3016    N        0.47260    0.67577    0.66273    1.000
    N3017    N        0.48086    0.65974    0.73015    1.000
    N3018    N        0.48891    0.59620    0.85707    1.000
    N3019    N        0.50154    0.52762    0.74834    1.000
    N3020    N        0.51503    0.53197    0.86666    1.000
    N3021    N        0.50001    0.59782    0.74594    1.000
    Si3022   Si       0.50618    0.63962    0.75900    1.000
    Si3023   Si       0.48143    0.73451    0.77386    1.000
    N3024    N        0.49105    0.70724    0.80504    1.000
    N3025    N        0.47678    0.66668    0.85150    1.000
    Si3026   Si       0.51488    0.67422    0.82565    1.000
    N3027    N        0.50856    0.63585    0.80217    1.000
    Si3028   Si       0.48990    0.56461    0.94666    1.000
    Si3029   Si       0.50013    0.56959    0.88702    1.000
    N3030    N        0.49339    0.53532    0.97899    1.000
    N3031    N        0.46854    0.54770    0.91037    1.000
    N3032    N        0.47011    0.59786    0.96366    1.000
    Si3033   Si       0.46816    0.74113    0.88749    1.000
    Si3034   Si       0.46773    0.63095    0.93614    1.000
    N3035    N        0.46321    0.67421    0.94561    1.000
    N3036    N        0.50723    0.63869    0.91743    1.000
    Si3037   Si       0.50349    0.74479    0.97421    1.000
    Si3038   Si       0.50188    0.68286    0.92760    1.000
    N3039    N        0.50311    0.71787    0.89658    1.000
    N3040    N        0.46640    0.83350    0.06805    1.000
    Si3041   Si       0.48196    0.85067    0.10771    1.000
    Si3042   Si       0.50645    0.81759    0.06178    1.000
    N3043    N        0.50853    0.77467    0.06246    1.000
    N3044    N        0.47775    0.89126    0.10218    1.000
    N3045    N        0.48690    0.96013    0.09390    1.000
    N3046    N        0.49388    0.95044    0.02959    1.000
    Si3047   Si       0.47475    0.98098    0.00287    1.000
    Si3048   Si       0.51541    0.96419    0.06413    1.000
    Si3049   Si       0.49526    0.92243    0.99765    1.000
    Si3050   Si       0.48729    0.79900    0.16634    1.000
    N3051    N        0.51154    0.79986    0.20196    1.000
    N3052    N        0.46489    0.83150    0.14446    1.000
    Si3053   Si       0.50567    0.78434    0.24126    1.000
    N3054    N        0.51309    0.79289    0.13128    1.000
    N3055    N        0.48181    0.88519    0.18258    1.000
    Si3056   Si       0.48096    0.97291    0.13681    1.000
    Si3057   Si       0.46039    0.92031    0.16812    1.000
    N3058    N        0.50230    0.94308    0.16074    1.000
    N3059    N        0.48991    0.81604    0.26722    1.000
    Si3060   Si       0.48390    0.80701    0.30993    1.000
    N3061    N        0.49632    0.85947    0.31277    1.000
    N3062    N        0.48217    0.76216    0.30644    1.000
    Si3063   Si       0.49394    0.85888    0.26467    1.000
    Si3064   Si       0.47372    0.88048    0.34586    1.000
    N3065    N        0.49822    0.94622    0.32421    1.000
    N3066    N        0.49399    0.92847    0.25724    1.000
    Si3067   Si       0.50962    0.96085    0.28309    1.000
    N3068    N        0.49898    0.00168    0.26970    1.000
    N3069    N        0.51154    0.89500    0.36596    1.000
    Si3070   Si       0.48626    0.80994    0.47652    1.000
    N3071    N        0.51233    0.83626    0.39538    1.000
    Si3072   Si       0.47017    0.83438    0.40559    1.000
    N3073    N        0.46766    0.77133    0.46848    1.000
    N3074    N        0.46559    0.83735    0.44878    1.000
    Si3075   Si       0.46445    0.92445    0.44074    1.000
    N3076    N        0.50523    0.90549    0.43681    1.000
    N3077    N        0.49776    0.81376    0.58110    1.000
    N3078    N        0.47578    0.82519    0.51735    1.000
    Si3079   Si       0.50859    0.80836    0.54065    1.000
    Si3080   Si       0.51066    0.84833    0.60505    1.000
    N3081    N        0.50990    0.77028    0.51743    1.000
    N3082    N        0.47583    0.87171    0.61627    1.000
    Si3083   Si       0.49130    0.78360    0.60995    1.000
    N3084    N        0.48511    0.90224    0.55022    1.000
    Si3085   Si       0.47256    0.91890    0.51147    1.000
    Si3086   Si       0.47156    0.99397    0.61089    1.000
    N3087    N        0.50827    0.94132    0.50106    1.000
    N3088    N        0.51048    0.00946    0.61426    1.000
    N3089    N        0.46532    0.79205    0.64318    1.000
    Si3090   Si       0.49473    0.81322    0.66877    1.000
    N3091    N        0.50715    0.78294    0.69519    1.000
    N3092    N        0.46692    0.84542    0.68149    1.000
    Si3093   Si       0.46335    0.88092    0.65568    1.000
    Si3094   Si       0.46965    0.76112    0.70713    1.000
    Si3095   Si       0.51495    0.89679    0.70626    1.000
    Si3096   Si       0.48404    0.95201    0.67175    1.000
    N3097    N        0.48710    0.89808    0.73710    1.000
    N3098    N        0.49175    0.90965    0.67260    1.000
    N3099    N        0.45969    0.96023    0.70840    1.000
    Si3100   Si       0.46092    0.93355    0.74100    1.000
    Si3101   Si       0.49745    0.80473    0.79096    1.000
    N3102    N        0.50716    0.80548    0.83440    1.000
    Si3103   Si       0.49729    0.87600    0.77300    1.000
    N3104    N        0.51283    0.76737    0.77700    1.000
    Si3105   Si       0.48480    0.81614    0.86864    1.000
    N3106    N        0.51516    0.83706    0.76853    1.000
    Si3107   Si       0.47319    0.91922    0.80796    1.000
    N3108    N        0.51612    0.90669    0.79732    1.000
    N3109    N        0.46429    0.95231    0.78238    1.000
    N3110    N        0.48759    0.84945    0.96293    1.000
    N3111    N        0.47140    0.78372    0.89406    1.000
    N3112    N        0.50970    0.84256    0.89309    1.000
    Si3113   Si       0.49478    0.86717    0.92409    1.000
    N3114    N        0.46352    0.76651    0.97357    1.000
    Si3115   Si       0.48532    0.92296    0.87876    1.000
    N3116    N        0.48605    0.95405    0.96834    1.000
    Si3117   Si       0.46596    0.96587    0.93318    1.000
    N3118    N        0.46398    0.89316    0.90475    1.000
    N3119    N        0.49169    0.96282    0.89814    1.000
    N3120    N        0.54555    0.06160    0.02333    1.000
    Si3121   Si       0.55645    0.11252    0.11408    1.000
    Si3122   Si       0.55897    0.10237    0.01029    1.000
    N3123    N        0.56849    0.03206    0.11180    1.000
    Si3124   Si       0.52782    0.02465    0.10099    1.000
    N3125    N        0.55752    0.13978    0.03085    1.000
    Si3126   Si       0.52933    0.24084    0.04340    1.000
    N3127    N        0.55277    0.15272    0.09787    1.000
    N3128    N        0.52843    0.20018    0.05857    1.000
    Si3129   Si       0.52875    0.18710    0.10179    1.000
    Si3130   Si       0.52230    0.16824    0.02914    1.000
    N3131    N        0.57186    0.24876    0.03402    1.000
    Si3132   Si       0.53129    0.25375    0.11250    1.000
    N3133    N        0.55520    0.21788    0.12127    1.000
    N3134    N        0.51606    0.25717    0.00271    1.000
    N3135    N        0.57283    0.02820    0.18074    1.000
    Si3136   Si       0.54766    0.00702    0.21186    1.000
    Si3137   Si       0.57004    0.24632    0.24467    1.000
    N3138    N        0.56876    0.20620    0.22738    1.000
    Si3139   Si       0.53632    0.18616    0.20731    1.000
    N3140    N        0.54489    0.15766    0.17490    1.000
    Si3141   Si       0.55415    0.10847    0.31510    1.000
    N3142    N        0.54900    0.08611    0.35092    1.000
    N3143    N        0.56014    0.01647    0.32529    1.000
    Si3144   Si       0.55905    0.06439    0.25051    1.000
    N3145    N        0.57075    0.07495    0.29162    1.000
    N3146    N        0.56088    0.02136    0.24797    1.000
    N3147    N        0.54614    0.18840    0.29805    1.000
    Si3148   Si       0.54584    0.22877    0.31313    1.000
    N3149    N        0.54065    0.25218    0.27718    1.000
    N3150    N        0.57970    0.24835    0.33163    1.000
    Si3151   Si       0.56053    0.10296    0.43945    1.000
    N3152    N        0.55331    0.11572    0.47889    1.000
    N3153    N        0.53523    0.03175    0.39047    1.000
    Si3154   Si       0.54991    0.02275    0.43113    1.000
    N3155    N        0.57052    0.06156    0.44093    1.000
    Si3156   Si       0.52379    0.07233    0.38311    1.000
    N3157    N        0.52205    0.09960    0.41744    1.000
    Si3158   Si       0.55960    0.15866    0.48887    1.000
    N3159    N        0.52842    0.19044    0.39510    1.000
    Si3160   Si       0.56525    0.17806    0.41110    1.000
    N3161    N        0.56392    0.18576    0.45597    1.000
    N3162    N        0.54220    0.23738    0.48809    1.000
    N3163    N        0.57809    0.24226    0.42435    1.000
    N3164    N        0.54016    0.09409    0.54838    1.000
    Si3165   Si       0.54357    0.08370    0.50636    1.000
    N3166    N        0.56731    0.03853    0.57545    1.000
    Si3167   Si       0.57014    0.08191    0.57724    1.000
    N3168    N        0.56512    0.09750    0.61672    1.000
    Si3169   Si       0.53646    0.13093    0.62025    1.000
    N3170    N        0.54662    0.15965    0.59011    1.000
    Si3171   Si       0.54420    0.21576    0.52466    1.000
    N3172    N        0.53223    0.17334    0.51881    1.000
    N3173    N        0.56086    0.22705    0.61297    1.000
    Si3174   Si       0.57240    0.19293    0.58889    1.000
    Si3175   Si       0.53282    0.25417    0.59517    1.000
    N3176    N        0.52123    0.23615    0.55642    1.000
    Si3177   Si       0.57076    0.12666    0.68855    1.000
    Si3178   Si       0.55114    0.07893    0.72742    1.000
    N3179    N        0.56296    0.02669    0.65157    1.000
    N3180    N        0.56075    0.08386    0.68489    1.000
    N3181    N        0.55185    0.12340    0.73011    1.000
    Si3182   Si       0.52191    0.01503    0.65611    1.000
    Si3183   Si       0.57599    0.06591    0.64848    1.000
    Si3184   Si       0.57315    0.24085    0.65347    1.000
    N3185    N        0.54576    0.14626    0.66001    1.000
    N3186    N        0.54945    0.21997    0.68235    1.000
    Si3187   Si       0.54136    0.23890    0.72157    1.000
    Si3188   Si       0.52634    0.18414    0.67322    1.000
    N3189    N        0.56330    0.09639    0.79434    1.000
    N3190    N        0.54991    0.02438    0.79802    1.000
    Si3191   Si       0.53389    0.06542    0.79204    1.000
    Si3192   Si       0.56279    0.01737    0.75751    1.000
    Si3193   Si       0.53576    0.12951    0.80604    1.000
    N3194    N        0.52009    0.13380    0.84775    1.000
    N3195    N        0.51911    0.05952    0.75032    1.000
    N3196    N        0.55403    0.17031    0.81195    1.000
    Si3197   Si       0.55300    0.16376    0.85525    1.000
    N3198    N        0.55883    0.24005    0.81912    1.000
    Si3199   Si       0.54952    0.24282    0.86157    1.000
    Si3200   Si       0.57036    0.20587    0.79580    1.000
    N3201    N        0.56257    0.21740    0.75309    1.000
    Si3202   Si       0.56762    0.02110    0.94815    1.000
    Si3203   Si       0.53045    0.08617    0.94693    1.000
    N3204    N        0.53260    0.09603    0.90358    1.000
    N3205    N        0.56714    0.06482    0.95160    1.000
    N3206    N        0.53349    0.11650    0.97702    1.000
    Si3207   Si       0.57545    0.10450    0.90074    1.000
    N3208    N        0.52796    0.00910    0.93321    1.000
    N3209    N        0.54457    0.20226    0.87403    1.000
    N3210    N        0.53716    0.16902    0.93016    1.000
    Si3211   Si       0.54270    0.30827    0.08011    1.000
    N3212    N        0.53173    0.33397    0.11193    1.000
    N3213    N        0.52354    0.32764    0.04520    1.000
    N3214    N        0.57762    0.28395    0.09183    1.000
    Si3215   Si       0.56339    0.40930    0.02893    1.000
    Si3216   Si       0.56147    0.44234    0.07999    1.000
    N3217    N        0.56467    0.45214    0.03709    1.000
    Si3218   Si       0.56069    0.48962    0.01813    1.000
    N3219    N        0.56830    0.39986    0.07171    1.000
    N3220    N        0.52069    0.45090    0.09535    1.000
    N3221    N        0.52233    0.39985    0.01788    1.000
    N3222    N        0.55560    0.27247    0.21249    1.000
    N3223    N        0.52729    0.33401    0.18967    1.000
    N3224    N        0.52990    0.27686    0.14861    1.000
    Si3225   Si       0.55029    0.31575    0.22404    1.000
    Si3226   Si       0.54172    0.31731    0.15187    1.000
    Si3227   Si       0.52416    0.25871    0.18708    1.000
    N3228    N        0.55285    0.49605    0.14233    1.000
    N3229    N        0.54949    0.46724    0.20763    1.000
    N3230    N        0.53670    0.39982    0.20428    1.000
    Si3231   Si       0.56149    0.42681    0.22540    1.000
    Si3232   Si       0.57716    0.47978    0.17843    1.000
    N3233    N        0.55303    0.34739    0.33755    1.000
    N3234    N        0.54891    0.42775    0.26645    1.000
    N3235    N        0.55470    0.41380    0.33402    1.000
    N3236    N        0.54083    0.49345    0.28310    1.000
    Si3237   Si       0.57503    0.39480    0.36863    1.000
    Si3238   Si       0.55821    0.45875    0.36981    1.000
    N3239    N        0.57775    0.48355    0.34076    1.000
    Si3240   Si       0.57573    0.41232    0.29769    1.000
    Si3241   Si       0.54418    0.33513    0.37757    1.000
    Si3242   Si       0.56059    0.37059    0.44463    1.000
    Si3243   Si       0.54539    0.26833    0.41214    1.000
    N3244    N        0.56491    0.36565    0.40014    1.000
    N3245    N        0.56500    0.29706    0.38468    1.000
    N3246    N        0.52597    0.29161    0.44258    1.000
    Si3247   Si       0.51896    0.27314    0.48129    1.000
    N3248    N        0.57449    0.40802    0.46157    1.000
    N3249    N        0.56088    0.47263    0.47984    1.000
    Si3250   Si       0.55022    0.43196    0.48983    1.000
    N3251    N        0.54832    0.48947    0.40007    1.000
    Si3252   Si       0.53424    0.50674    0.46857    1.000
    N3253    N        0.54128    0.35696    0.56186    1.000
    N3254    N        0.55189    0.29054    0.58210    1.000
    N3255    N        0.53574    0.30504    0.50743    1.000
    Si3256   Si       0.53089    0.31351    0.54908    1.000
    Si3257   Si       0.52232    0.50402    0.60154    1.000
    N3258    N        0.54228    0.42435    0.53333    1.000
    N3259    N        0.55558    0.49000    0.54179    1.000
    Si3260   Si       0.54699    0.45441    0.56203    1.000
    N3261    N        0.56178    0.50083    0.61744    1.000
    N3262    N        0.52634    0.35169    0.62801    1.000
    Si3263   Si       0.56452    0.35850    0.64297    1.000
    N3264    N        0.55791    0.27835    0.71648    1.000
    Si3265   Si       0.55024    0.30279    0.68312    1.000
    N3266    N        0.56476    0.28192    0.64723    1.000
    N3267    N        0.57529    0.33697    0.68052    1.000
    N3268    N        0.55089    0.42013    0.71796    1.000
    Si3269   Si       0.53473    0.41596    0.67741    1.000
    N3270    N        0.56668    0.40061    0.65163    1.000
    Si3271   Si       0.56261    0.48696    0.66056    1.000
    N3272    N        0.53017    0.45625    0.66497    1.000
    N3273    N        0.53927    0.34522    0.76809    1.000
    N3274    N        0.55019    0.31015    0.83755    1.000
    Si3275   Si       0.56075    0.35363    0.83924    1.000
    Si3276   Si       0.54812    0.28127    0.80557    1.000
    N3277    N        0.52720    0.37590    0.82704    1.000
    N3278    N        0.56471    0.45925    0.84751    1.000
    N3279    N        0.55179    0.43925    0.78309    1.000
    Si3280   Si       0.53218    0.45618    0.82044    1.000
    Si3281   Si       0.52358    0.42918    0.75201    1.000
    N3282    N        0.52369    0.49625    0.80787    1.000
    Si3283   Si       0.55778    0.30693    0.88116    1.000
    Si3284   Si       0.53347    0.34031    0.94449    1.000
    N3285    N        0.53599    0.30500    0.91748    1.000
    N3286    N        0.57633    0.34700    0.95237    1.000
    N3287    N        0.57374    0.35210    0.87963    1.000
    N3288    N        0.57688    0.26665    0.88354    1.000
    N3289    N        0.55696    0.48894    0.97427    1.000
    N3290    N        0.52644    0.41788    0.88539    1.000
    Si3291   Si       0.56707    0.43580    0.88434    1.000
    Si3292   Si       0.53969    0.46893    0.94061    1.000
    N3293    N        0.57586    0.46382    0.91640    1.000
    N3294    N        0.51990    0.43354    0.95432    1.000
    N3295    N        0.54277    0.52625    0.03066    1.000
    N3296    N        0.55075    0.56561    0.08800    1.000
    Si3297   Si       0.55957    0.60752    0.09367    1.000
    Si3298   Si       0.57109    0.54483    0.05702    1.000
    N3299    N        0.54261    0.62916    0.06037    1.000
    Si3300   Si       0.51844    0.61747    0.02508    1.000
    Si3301   Si       0.55884    0.53239    0.11786    1.000
    N3302    N        0.55387    0.69134    0.02987    1.000
    Si3303   Si       0.54820    0.67219    0.06945    1.000
    N3304    N        0.52067    0.61116    0.19419    1.000
    Si3305   Si       0.53241    0.58798    0.15766    1.000
    N3306    N        0.54316    0.62321    0.13350    1.000
    N3307    N        0.56558    0.56046    0.15100    1.000
    Si3308   Si       0.54592    0.59066    0.22770    1.000
    N3309    N        0.52182    0.55698    0.24679    1.000
    N3310    N        0.56517    0.67911    0.16877    1.000
    Si3311   Si       0.57343    0.69278    0.20875    1.000
    Si3312   Si       0.53288    0.65133    0.16536    1.000
    N3313    N        0.53672    0.68489    0.22994    1.000
    N3314    N        0.54123    0.72524    0.12447    1.000
    Si3315   Si       0.54960    0.56258    0.33955    1.000
    N3316    N        0.55120    0.60386    0.32620    1.000
    N3317    N        0.55172    0.62043    0.25768    1.000
    Si3318   Si       0.52472    0.63207    0.34849    1.000
    Si3319   Si       0.57708    0.61464    0.29136    1.000
    N3320    N        0.54165    0.73589    0.32107    1.000
    Si3321   Si       0.56170    0.69774    0.31365    1.000
    N3322    N        0.52977    0.67102    0.30161    1.000
    Si3323   Si       0.52506    0.65574    0.26121    1.000
    N3324    N        0.56941    0.52618    0.44928    1.000
    Si3325   Si       0.56831    0.52713    0.40758    1.000
    N3326    N        0.55981    0.58795    0.46910    1.000
    N3327    N        0.54917    0.55724    0.38203    1.000
    Si3328   Si       0.56114    0.62703    0.48522    1.000
    N3329    N        0.53143    0.62505    0.39130    1.000
    Si3330   Si       0.51997    0.57130    0.47565    1.000
    N3331    N        0.52140    0.69294    0.40972    1.000
    Si3332   Si       0.54149    0.65517    0.42052    1.000
    N3333    N        0.52559    0.75228    0.44694    1.000
    Si3334   Si       0.53450    0.73464    0.40933    1.000
    N3335    N        0.53031    0.65029    0.46388    1.000
    N3336    N        0.54881    0.60479    0.59282    1.000
    Si3337   Si       0.54415    0.53290    0.53650    1.000
    N3338    N        0.53776    0.61837    0.52193    1.000
    Si3339   Si       0.56182    0.62593    0.55721    1.000
    N3340    N        0.52398    0.53445    0.49827    1.000
    N3341    N        0.52190    0.53974    0.57363    1.000
    N3342    N        0.53194    0.73128    0.56793    1.000
    Si3343   Si       0.56105    0.68431    0.60290    1.000
    Si3344   Si       0.54080    0.74122    0.52768    1.000
    N3345    N        0.56476    0.66977    0.56154    1.000
    Si3346   Si       0.55933    0.75252    0.59685    1.000
    N3347    N        0.52942    0.70903    0.50175    1.000
    N3348    N        0.54612    0.51705    0.68384    1.000
    Si3349   Si       0.54540    0.56101    0.68831    1.000
    N3350    N        0.56768    0.58823    0.66312    1.000
    N3351    N        0.55692    0.56876    0.73018    1.000
    Si3352   Si       0.55691    0.61881    0.63300    1.000
    N3353    N        0.52405    0.69318    0.62038    1.000
    N3354    N        0.55901    0.74255    0.72474    1.000
    N3355    N        0.57938    0.65538    0.62699    1.000
    N3356    N        0.53669    0.69139    0.69018    1.000
    Si3357   Si       0.57466    0.70744    0.70345    1.000
    Si3358   Si       0.53670    0.53383    0.82617    1.000
    N3359    N        0.52812    0.56832    0.80297    1.000
    N3360    N        0.54917    0.62268    0.85675    1.000
    Si3361   Si       0.52443    0.56451    0.75962    1.000
    Si3362   Si       0.52149    0.60332    0.82761    1.000
    N3363    N        0.55200    0.69058    0.84429    1.000
    N3364    N        0.53476    0.67283    0.75706    1.000
    N3365    N        0.57385    0.72225    0.78717    1.000
    Si3366   Si       0.57541    0.68346    0.76909    1.000
    N3367    N        0.55926    0.75564    0.85599    1.000
    Si3368   Si       0.55520    0.75732    0.76767    1.000
    Si3369   Si       0.57711    0.72398    0.82932    1.000
    Si3370   Si       0.56624    0.57279    0.92733    1.000
    N3371    N        0.52389    0.57343    0.92224    1.000
    N3372    N        0.55013    0.60827    0.99680    1.000
    N3373    N        0.57975    0.55872    0.96633    1.000
    Si3374   Si       0.56570    0.70202    0.94461    1.000
    Si3375   Si       0.54477    0.63420    0.89712    1.000
    N3376    N        0.57642    0.73140    0.97623    1.000
    N3377    N        0.56646    0.73996    0.91646    1.000
    N3378    N        0.55234    0.67956    0.90746    1.000
    Si3379   Si       0.54514    0.71604    0.88412    1.000
    N3380    N        0.51935    0.70314    0.96197    1.000
    Si3381   Si       0.56116    0.86827    0.09172    1.000
    Si3382   Si       0.53108    0.77383    0.02414    1.000
    N3383    N        0.53146    0.82060    0.02573    1.000
    Si3384   Si       0.56819    0.84415    0.01873    1.000
    N3385    N        0.56521    0.78227    0.09830    1.000
    N3386    N        0.56774    0.87372    0.04951    1.000
    N3387    N        0.52559    0.84223    0.09240    1.000
    N3388    N        0.57212    0.76118    0.03502    1.000
    Si3389   Si       0.52511    0.76128    0.10462    1.000
    N3390    N        0.54879    0.93789    0.06647    1.000
    Si3391   Si       0.56297    0.91393    0.03233    1.000
    N3392    N        0.53564    0.90628    0.00009    1.000
    N3393    N        0.52646    0.00570    0.06223    1.000
    N3394    N        0.57620    0.90179    0.11691    1.000
    Si3395   Si       0.57832    0.94280    0.09911    1.000
    N3396    N        0.56999    0.79158    0.16460    1.000
    Si3397   Si       0.55404    0.81368    0.12855    1.000
    N3398    N        0.54370    0.84791    0.16401    1.000
    Si3399   Si       0.55028    0.81644    0.19411    1.000
    N3400    N        0.52363    0.86757    0.23316    1.000
    Si3401   Si       0.52389    0.87989    0.19073    1.000
    N3402    N        0.57830    0.83352    0.22161    1.000
    N3403    N        0.56031    0.90613    0.18402    1.000
    Si3404   Si       0.54388    0.94417    0.16738    1.000
    N3405    N        0.55603    0.96535    0.20599    1.000
    N3406    N        0.56564    0.96628    0.13492    1.000
    Si3407   Si       0.54041    0.86363    0.32612    1.000
    Si3408   Si       0.54604    0.77458    0.30288    1.000
    N3409    N        0.54270    0.76817    0.26032    1.000
    N3410    N        0.56156    0.84587    0.28935    1.000
    N3411    N        0.52406    0.80130    0.33124    1.000
    Si3412   Si       0.56392    0.86547    0.25011    1.000
    N3413    N        0.56833    0.83971    0.35399    1.000
    N3414    N        0.55421    0.90467    0.31977    1.000
    N3415    N        0.55340    0.96068    0.28327    1.000
    Si3416   Si       0.53036    0.92838    0.34606    1.000
    Si3417   Si       0.56870    0.00004    0.28511    1.000
    Si3418   Si       0.53378    0.00457    0.35696    1.000
    N3419    N        0.54826    0.96372    0.36775    1.000
    Si3420   Si       0.57917    0.92676    0.29258    1.000
    Si3421   Si       0.53516    0.80427    0.37483    1.000
    N3422    N        0.56767    0.87124    0.41471    1.000
    N3423    N        0.52840    0.81765    0.46743    1.000
    N3424    N        0.56566    0.79999    0.40718    1.000
    Si3425   Si       0.55251    0.78794    0.44713    1.000
    Si3426   Si       0.52673    0.87745    0.40536    1.000
    N3427    N        0.52023    0.76215    0.37997    1.000
    N3428    N        0.57545    0.98673    0.43208    1.000
    Si3429   Si       0.52734    0.91191    0.47445    1.000
    N3430    N        0.56775    0.92082    0.46399    1.000
    N3431    N        0.54993    0.82153    0.53351    1.000
    N3432    N        0.54098    0.87370    0.58666    1.000
    N3433    N        0.53457    0.88141    0.50749    1.000
    N3434    N        0.57475    0.79182    0.59410    1.000
    Si3435   Si       0.55191    0.84369    0.49614    1.000
    Si3436   Si       0.52884    0.89528    0.55025    1.000
    N3437    N        0.55061    0.93331    0.55663    1.000
    Si3438   Si       0.53926    0.96238    0.52524    1.000
    N3439    N        0.57153    0.97642    0.50363    1.000
    Si3440   Si       0.54515    0.00260    0.58895    1.000
    N3441    N        0.52365    0.99543    0.54814    1.000
    N3442    N        0.57814    0.97800    0.60671    1.000
    N3443    N        0.57391    0.80457    0.72660    1.000
    Si3444   Si       0.56440    0.80902    0.63492    1.000
    Si3445   Si       0.55202    0.77764    0.70015    1.000
    N3446    N        0.54552    0.86810    0.71573    1.000
    N3447    N        0.52288    0.82357    0.63936    1.000
    N3448    N        0.57779    0.77933    0.66304    1.000
    N3449    N        0.52555    0.75879    0.62354    1.000
    Si3450   Si       0.57573    0.90034    0.72299    1.000
    Si3451   Si       0.54831    0.97063    0.70436    1.000
    N3452    N        0.53203    0.00165    0.72857    1.000
    N3453    N        0.54405    0.93060    0.71778    1.000
    N3454    N        0.52219    0.97339    0.66955    1.000
    Si3455   Si       0.54937    0.79444    0.83291    1.000
    N3456    N        0.57165    0.78923    0.79661    1.000
    N3457    N        0.57225    0.82144    0.86094    1.000
    Si3458   Si       0.55177    0.83735    0.74425    1.000
    Si3459   Si       0.56086    0.99662    0.83051    1.000
    N3460    N        0.56615    0.95537    0.81486    1.000
    Si3461   Si       0.54896    0.91547    0.82557    1.000
    N3462    N        0.52628    0.91648    0.86332    1.000
    N3463    N        0.53131    0.00282    0.86134    1.000
    N3464    N        0.55635    0.84569    0.97440    1.000
    N3465    N        0.53138    0.78166    0.97835    1.000
    Si3466   Si       0.55263    0.83883    0.89699    1.000
    N3467    N        0.55882    0.80293    0.92002    1.000
    Si3468   Si       0.56727    0.76872    0.95306    1.000
    Si3469   Si       0.51866    0.82497    0.98205    1.000
    Si3470   Si       0.55323    0.88833    0.96361    1.000
    Si3471   Si       0.55068    0.91039    0.89836    1.000
    Si3472   Si       0.53067    0.98076    0.89985    1.000
    N3473    N        0.52705    0.89574    0.93013    1.000
    N3474    N        0.56179    0.95156    0.90733    1.000
    N3475    N        0.60440    0.03159    0.05352    1.000
    Si3476   Si       0.59516    0.05660    0.08820    1.000
    N3477    N        0.60027    0.08747    0.00355    1.000
    N3478    N        0.63045    0.06363    0.11188    1.000
    Si3479   Si       0.58508    0.04716    0.01675    1.000
    N3480    N        0.57535    0.09593    0.08040    1.000
    Si3481   Si       0.58209    0.13813    0.06732    1.000
    N3482    N        0.62204    0.15090    0.07223    1.000
    N3483    N        0.61495    0.22391    0.08739    1.000
    Si3484   Si       0.60121    0.25799    0.06416    1.000
    N3485    N        0.63304    0.01998    0.21371    1.000
    N3486    N        0.58610    0.08311    0.22305    1.000
    Si3487   Si       0.60933    0.11949    0.23289    1.000
    Si3488   Si       0.60647    0.05206    0.19946    1.000
    N3489    N        0.58970    0.11476    0.14221    1.000
    Si3490   Si       0.62819    0.09472    0.14171    1.000
    Si3491   Si       0.59799    0.21904    0.12644    1.000
    Si3492   Si       0.60761    0.18597    0.22235    1.000
    Si3493   Si       0.58621    0.15028    0.16441    1.000
    N3494    N        0.60657    0.17727    0.13813    1.000
    N3495    N        0.61497    0.25587    0.14513    1.000
    N3496    N        0.60683    0.14716    0.20047    1.000
    N3497    N        0.62416    0.21957    0.19946    1.000
    N3498    N        0.61523    0.07420    0.34625    1.000
    Si3499   Si       0.61844    0.11872    0.34188    1.000
    Si3500   Si       0.57872    0.05636    0.33185    1.000
    N3501    N        0.58408    0.13704    0.32580    1.000
    N3502    N        0.58659    0.14645    0.25967    1.000
    Si3503   Si       0.62698    0.18531    0.35429    1.000
    N3504    N        0.61490    0.19570    0.31514    1.000
    Si3505   Si       0.61566    0.24029    0.30653    1.000
    Si3506   Si       0.58477    0.16905    0.29732    1.000
    N3507    N        0.60767    0.25396    0.26558    1.000
    N3508    N        0.62124    0.09302    0.47328    1.000
    Si3509   Si       0.59877    0.05329    0.47223    1.000
    Si3510   Si       0.63126    0.13161    0.48655    1.000
    Si3511   Si       0.62606    0.13308    0.41178    1.000
    N3512    N        0.58214    0.13465    0.41710    1.000
    N3513    N        0.62082    0.21621    0.48239    1.000
    Si3514   Si       0.58066    0.22733    0.46732    1.000
    Si3515   Si       0.61351    0.22971    0.40331    1.000
    N3516    N        0.63324    0.14557    0.37123    1.000
    N3517    N        0.59589    0.19484    0.38396    1.000
    N3518    N        0.60655    0.08288    0.55327    1.000
    Si3519   Si       0.59483    0.04229    0.54127    1.000
    N3520    N        0.62640    0.01300    0.53677    1.000
    N3521    N        0.57211    0.05143    0.50540    1.000
    Si3522   Si       0.61327    0.19187    0.52160    1.000
    N3523    N        0.61008    0.18283    0.60499    1.000
    N3524    N        0.60021    0.15429    0.50553    1.000
    N3525    N        0.58009    0.20768    0.54629    1.000
    N3526    N        0.61857    0.06879    0.64947    1.000
    N3527    N        0.58298    0.05200    0.74091    1.000
    Si3528   Si       0.62633    0.05424    0.74164    1.000
    N3529    N        0.61315    0.12950    0.68050    1.000
    N3530    N        0.61748    0.23931    0.65041    1.000
    N3531    N        0.61908    0.19154    0.71170    1.000
    Si3532   Si       0.60670    0.10358    0.79015    1.000
    N3533    N        0.61984    0.12961    0.82489    1.000
    N3534    N        0.62658    0.13288    0.76250    1.000
    N3535    N        0.63368    0.07177    0.78197    1.000
    N3536    N        0.61284    0.19458    0.78653    1.000
    Si3537   Si       0.62371    0.14405    0.86481    1.000
    N3538    N        0.62393    0.25065    0.75241    1.000
    Si3539   Si       0.60692    0.21075    0.74725    1.000
    N3540    N        0.58707    0.01512    0.98724    1.000
    N3541    N        0.59382    0.12020    0.93910    1.000
    Si3542   Si       0.60583    0.08674    0.96166    1.000
    Si3543   Si       0.60743    0.03136    0.88263    1.000
    N3544    N        0.59974    0.07420    0.88465    1.000
    N3545    N        0.59392    0.00808    0.91542    1.000
    N3546    N        0.63762    0.24150    0.90958    1.000
    N3547    N        0.61708    0.23224    0.99373    1.000
    N3548    N        0.58211    0.14618    0.88217    1.000
    N3549    N        0.61233    0.18483    0.94179    1.000
    Si3550   Si       0.62156    0.22632    0.94943    1.000
    Si3551   Si       0.57991    0.16141    0.92589    1.000
    N3552    N        0.60914    0.34369    0.05670    1.000
    Si3553   Si       0.59868    0.34370    0.01407    1.000
    N3554    N        0.63401    0.32030    0.11460    1.000
    N3555    N        0.63716    0.27960    0.05443    1.000
    Si3556   Si       0.60553    0.37959    0.08128    1.000
    Si3557   Si       0.58669    0.26180    0.99520    1.000
    N3558    N        0.57906    0.30594    0.00161    1.000
    Si3559   Si       0.64125    0.31970    0.07059    1.000
    N3560    N        0.59770    0.38749    0.01242    1.000
    N3561    N        0.59913    0.45229    0.09812    1.000
    Si3562   Si       0.62331    0.49040    0.09005    1.000
    N3563    N        0.63699    0.44074    0.00547    1.000
    Si3564   Si       0.64106    0.40056    0.02057    1.000
    N3565    N        0.58872    0.33657    0.23040    1.000
    Si3566   Si       0.61140    0.32002    0.19477    1.000
    Si3567   Si       0.60352    0.29357    0.12737    1.000
    N3568    N        0.58435    0.31410    0.16101    1.000
    N3569    N        0.63365    0.28733    0.21027    1.000
    Si3570   Si       0.60951    0.37073    0.24853    1.000
    Si3571   Si       0.63760    0.35601    0.13820    1.000
    N3572    N        0.63628    0.35138    0.17989    1.000
    N3573    N        0.61219    0.38891    0.12331    1.000
    Si3574   Si       0.62817    0.43558    0.20590    1.000
    Si3575   Si       0.61725    0.43083    0.13138    1.000
    N3576    N        0.60347    0.44579    0.17046    1.000
    N3577    N        0.60256    0.41059    0.22920    1.000
    N3578    N        0.61253    0.31076    0.32797    1.000
    Si3579   Si       0.59587    0.34958    0.32433    1.000
    Si3580   Si       0.59577    0.28179    0.35727    1.000
    N3581    N        0.59399    0.37488    0.28928    1.000
    N3582    N        0.61160    0.37826    0.35202    1.000
    N3583    N        0.60473    0.44475    0.29767    1.000
    Si3584   Si       0.58066    0.48258    0.29610    1.000
    Si3585   Si       0.63719    0.45117    0.32280    1.000
    Si3586   Si       0.57889    0.31408    0.49582    1.000
    N3587    N        0.62836    0.26163    0.37852    1.000
    N3588    N        0.58858    0.34419    0.46630    1.000
    Si3589   Si       0.62713    0.36461    0.46541    1.000
    N3590    N        0.59692    0.27718    0.48053    1.000
    Si3591   Si       0.63514    0.25940    0.49219    1.000
    Si3592   Si       0.59665    0.49059    0.45928    1.000
    N3593    N        0.63309    0.39436    0.43237    1.000
    N3594    N        0.61753    0.46360    0.43561    1.000
    Si3595   Si       0.60146    0.42273    0.42991    1.000
    N3596    N        0.58152    0.43034    0.39174    1.000
    N3597    N        0.59427    0.32090    0.53640    1.000
    N3598    N        0.62102    0.28868    0.59353    1.000
    Si3599   Si       0.58212    0.35156    0.56652    1.000
    N3600    N        0.59168    0.34492    0.61329    1.000
    Si3601   Si       0.62671    0.29863    0.55238    1.000
    Si3602   Si       0.62872    0.37025    0.60835    1.000
    Si3603   Si       0.58304    0.30095    0.61355    1.000
    N3604    N        0.63423    0.25918    0.53510    1.000
    N3605    N        0.61342    0.38130    0.56576    1.000
    Si3606   Si       0.59746    0.48635    0.59855    1.000
    Si3607   Si       0.61144    0.42552    0.55944    1.000
    N3608    N        0.60711    0.44412    0.52152    1.000
    Si3609   Si       0.59594    0.48615    0.52534    1.000
    N3610    N        0.58469    0.44626    0.58537    1.000
    N3611    N        0.61682    0.49997    0.56125    1.000
    Si3612   Si       0.61425    0.33514    0.69949    1.000
    N3613    N        0.61849    0.29204    0.70091    1.000
    Si3614   Si       0.59583    0.28146    0.73696    1.000
    N3615    N        0.60914    0.34434    0.74296    1.000
    N3616    N        0.63450    0.50125    0.62066    1.000
    Si3617   Si       0.62625    0.49676    0.73622    1.000
    N3618    N        0.60302    0.46251    0.73770    1.000
    N3619    N        0.62525    0.41200    0.69291    1.000
    Si3620   Si       0.60544    0.42111    0.65585    1.000
    Si3621   Si       0.59420    0.42174    0.72275    1.000
    N3622    N        0.59896    0.46340    0.65738    1.000
    N3623    N        0.59556    0.35440    0.81225    1.000
    Si3624   Si       0.58165    0.33896    0.77382    1.000
    Si3625   Si       0.63430    0.37535    0.76102    1.000
    Si3626   Si       0.63604    0.34391    0.82932    1.000
    N3627    N        0.57785    0.29410    0.77573    1.000
    N3628    N        0.60553    0.40568    0.76297    1.000
    N3629    N        0.62086    0.46548    0.80688    1.000
    Si3630   Si       0.59476    0.44512    0.77753    1.000
    Si3631   Si       0.60774    0.46186    0.84746    1.000
    N3632    N        0.63096    0.38069    0.92609    1.000
    Si3633   Si       0.60074    0.31223    0.96035    1.000
    N3634    N        0.63190    0.33355    0.98408    1.000
    Si3635   Si       0.61002    0.27344    0.90743    1.000
    N3636    N        0.62063    0.31687    0.91442    1.000
    N3637    N        0.59640    0.26832    0.95157    1.000
    Si3638   Si       0.59803    0.35733    0.91371    1.000
    N3639    N        0.62488    0.50740    0.94446    1.000
    N3640    N        0.61015    0.42542    0.87453    1.000
    Si3641   Si       0.61882    0.47810    0.91402    1.000
    N3642    N        0.62356    0.49387    0.87317    1.000
    N3643    N        0.60161    0.61433    0.08964    1.000
    Si3644   Si       0.62647    0.59058    0.06508    1.000
    N3645    N        0.59785    0.57293    0.03758    1.000
    N3646    N        0.58796    0.51669    0.08472    1.000
    Si3647   Si       0.58689    0.58789    0.99800    1.000
    N3648    N        0.60270    0.50272    0.01066    1.000
    Si3649   Si       0.61638    0.65565    0.09613    1.000
    N3650    N        0.62154    0.70863    0.02043    1.000
    N3651    N        0.62351    0.74114    0.07931    1.000
    Si3652   Si       0.58106    0.72285    0.01822    1.000
    N3653    N        0.57959    0.68040    0.09657    1.000
    Si3654   Si       0.63517    0.74983    0.11963    1.000
    N3655    N        0.60021    0.51246    0.19563    1.000
    Si3656   Si       0.59835    0.55243    0.17864    1.000
    N3657    N        0.58569    0.57896    0.21146    1.000
    Si3658   Si       0.62080    0.58799    0.23482    1.000
    Si3659   Si       0.62445    0.51226    0.23239    1.000
    N3660    N        0.60872    0.72955    0.15183    1.000
    N3661    N        0.63168    0.66508    0.13506    1.000
    N3662    N        0.60795    0.67129    0.22431    1.000
    N3663    N        0.57947    0.73562    0.21061    1.000
    Si3664   Si       0.57739    0.70320    0.13388    1.000
    Si3665   Si       0.61457    0.54753    0.29352    1.000
    N3666    N        0.60716    0.58602    0.27672    1.000
    N3667    N        0.58863    0.54654    0.32749    1.000
    Si3668   Si       0.60546    0.51411    0.35252    1.000
    N3669    N        0.60798    0.50929    0.27272    1.000
    N3670    N        0.62381    0.62993    0.36254    1.000
    N3671    N        0.60337    0.65018    0.29489    1.000
    Si3672   Si       0.61722    0.66079    0.33569    1.000
    Si3673   Si       0.61507    0.67999    0.26647    1.000
    N3674    N        0.58361    0.70902    0.27716    1.000
    N3675    N        0.58220    0.68401    0.34885    1.000
    Si3676   Si       0.58120    0.74540    0.25403    1.000
    N3677    N        0.62319    0.75315    0.25757    1.000
    N3678    N        0.62479    0.56445    0.45636    1.000
    Si3679   Si       0.58901    0.55510    0.48147    1.000
    N3680    N        0.60954    0.52587    0.39281    1.000
    N3681    N        0.61389    0.51203    0.49329    1.000
    N3682    N        0.63301    0.70831    0.38907    1.000
    N3683    N        0.62526    0.70711    0.46546    1.000
    Si3684   Si       0.59229    0.69541    0.39099    1.000
    N3685    N        0.57856    0.73143    0.41386    1.000
    N3686    N        0.58340    0.66450    0.41951    1.000
    Si3687   Si       0.61499    0.66755    0.45125    1.000
    N3688    N        0.60192    0.64480    0.48611    1.000
    Si3689   Si       0.60884    0.74447    0.44056    1.000
    Si3690   Si       0.61575    0.57271    0.54684    1.000
    N3691    N        0.60352    0.61541    0.54825    1.000
    N3692    N        0.58083    0.55564    0.52798    1.000
    N3693    N        0.63679    0.56300    0.58428    1.000
    N3694    N        0.62350    0.69058    0.53219    1.000
    Si3695   Si       0.62211    0.64643    0.52513    1.000
    N3696    N        0.58914    0.71706    0.59630    1.000
    Si3697   Si       0.58965    0.70650    0.55292    1.000
    N3698    N        0.58314    0.74562    0.53081    1.000
    Si3699   Si       0.60506    0.60139    0.67657    1.000
    N3700    N        0.62258    0.57465    0.70453    1.000
    N3701    N        0.62262    0.60673    0.63736    1.000
    Si3702   Si       0.59928    0.57156    0.74011    1.000
    N3703    N        0.63636    0.75192    0.62888    1.000
    N3704    N        0.61240    0.64239    0.68687    1.000
    Si3705   Si       0.61779    0.64919    0.64355    1.000
    Si3706   Si       0.62023    0.71261    0.62877    1.000
    Si3707   Si       0.62789    0.65811    0.72419    1.000
    N3708    N        0.59624    0.68418    0.73344    1.000
    N3709    N        0.60515    0.71548    0.67149    1.000
    Si3710   Si       0.61551    0.75682    0.66845    1.000
    N3711    N        0.60173    0.58370    0.78310    1.000
    Si3712   Si       0.60787    0.54229    0.79641    1.000
    Si3713   Si       0.62155    0.62060    0.79094    1.000
    N3714    N        0.60445    0.52806    0.75698    1.000
    N3715    N        0.62683    0.57381    0.86336    1.000
    N3716    N        0.58042    0.53231    0.82874    1.000
    Si3717   Si       0.60638    0.53420    0.86554    1.000
    N3718    N        0.61698    0.71736    0.84279    1.000
    N3719    N        0.59133    0.65225    0.79727    1.000
    N3720    N        0.61260    0.64695    0.85900    1.000
    Si3721   Si       0.57514    0.65371    0.83796    1.000
    Si3722   Si       0.59145    0.51743    0.97024    1.000
    N3723    N        0.61764    0.61295    0.97996    1.000
    Si3724   Si       0.61704    0.61178    0.88399    1.000
    N3725    N        0.57937    0.61548    0.91388    1.000
    N3726    N        0.58143    0.54655    0.89733    1.000
    N3727    N        0.59549    0.67208    0.96116    1.000
    Si3728   Si       0.60642    0.63439    0.94394    1.000
    N3729    N        0.62323    0.80637    0.06707    1.000
    Si3730   Si       0.59625    0.77341    0.06771    1.000
    N3731    N        0.61034    0.84152    0.00780    1.000
    Si3732   Si       0.62673    0.82456    0.10762    1.000
    N3733    N        0.58700    0.84078    0.11677    1.000
    N3734    N        0.61322    0.95993    0.07728    1.000
    N3735    N        0.60167    0.92617    0.01354    1.000
    Si3736   Si       0.62877    0.99790    0.06326    1.000
    Si3737   Si       0.63291    0.93798    0.04330    1.000
    Si3738   Si       0.61807    0.83539    0.20418    1.000
    N3739    N        0.61830    0.86599    0.17160    1.000
    N3740    N        0.62569    0.79215    0.19981    1.000
    Si3741   Si       0.59664    0.76160    0.17931    1.000
    Si3742   Si       0.58075    0.87529    0.15170    1.000
    N3743    N        0.63939    0.85618    0.23629    1.000
    N3744    N        0.62579    0.00131    0.14406    1.000
    Si3745   Si       0.58177    0.93115    0.21632    1.000
    Si3746   Si       0.58385    0.00429    0.14463    1.000
    N3747    N        0.62485    0.93743    0.22050    1.000
    Si3748   Si       0.58793    0.82524    0.31901    1.000
    N3749    N        0.58914    0.78493    0.30395    1.000
    Si3750   Si       0.63368    0.78043    0.29426    1.000
    N3751    N        0.63318    0.82888    0.31743    1.000
    N3752    N        0.61202    0.94056    0.31447    1.000
    Si3753   Si       0.62549    0.98075    0.32321    1.000
    N3754    N        0.61803    0.98357    0.36567    1.000
    N3755    N        0.58413    0.90422    0.25415    1.000
    N3756    N        0.61191    0.00261    0.28814    1.000
    N3757    N        0.63157    0.88688    0.36177    1.000
    Si3758   Si       0.63112    0.90076    0.24699    1.000
    N3759    N        0.62909    0.82610    0.39069    1.000
    N3760    N        0.58947    0.85499    0.47745    1.000
    N3761    N        0.58870    0.77319    0.46724    1.000
    Si3762   Si       0.58590    0.83640    0.39441    1.000
    Si3763   Si       0.63427    0.85366    0.47613    1.000
    N3764    N        0.62647    0.96665    0.48222    1.000
    N3765    N        0.63415    0.88207    0.44150    1.000
    N3766    N        0.60601    0.93137    0.40956    1.000
    Si3767   Si       0.58633    0.96495    0.39382    1.000
    Si3768   Si       0.58448    0.96020    0.46608    1.000
    Si3769   Si       0.59008    0.88801    0.44763    1.000
    N3770    N        0.60255    0.85519    0.57268    1.000
    N3771    N        0.62118    0.80513    0.53789    1.000
    Si3772   Si       0.60661    0.77481    0.50582    1.000
    Si3773   Si       0.58417    0.81730    0.56027    1.000
    Si3774   Si       0.58195    0.87554    0.60589    1.000
    N3775    N        0.61474    0.94234    0.54882    1.000
    N3776    N        0.60278    0.91195    0.61158    1.000
    Si3777   Si       0.61124    0.97524    0.52100    1.000
    Si3778   Si       0.58541    0.94232    0.58452    1.000
    Si3779   Si       0.61943    0.86071    0.66755    1.000
    Si3780   Si       0.61916    0.80389    0.72038    1.000
    N3781    N        0.58498    0.84816    0.64127    1.000
    N3782    N        0.63824    0.82838    0.69108    1.000
    Si3783   Si       0.61644    0.98286    0.71672    1.000
    N3784    N        0.61311    0.89336    0.69877    1.000
    N3785    N        0.63530    0.00125    0.63916    1.000
    Si3786   Si       0.59238    0.99380    0.64473    1.000
    N3787    N        0.58911    0.97583    0.68414    1.000
    Si3788   Si       0.63410    0.91078    0.73144    1.000
    Si3789   Si       0.60401    0.81708    0.78910    1.000
    N3790    N        0.62253    0.84442    0.81875    1.000
    Si3791   Si       0.59737    0.86165    0.85227    1.000
    N3792    N        0.58390    0.85240    0.76849    1.000
    N3793    N        0.63447    0.80508    0.76196    1.000
    Si3794   Si       0.61105    0.88136    0.78855    1.000
    Si3795   Si       0.59498    0.95238    0.78110    1.000
    N3796    N        0.59698    0.91545    0.75840    1.000
    Si3797   Si       0.62789    0.97480    0.84692    1.000
    N3798    N        0.63127    0.95917    0.80543    1.000
    N3799    N        0.58599    0.89307    0.82391    1.000
    N3800    N        0.58927    0.98290    0.75249    1.000
    N3801    N        0.59858    0.00645    0.84866    1.000
    Si3802   Si       0.59958    0.82844    0.96578    1.000
    N3803    N        0.60507    0.78625    0.96505    1.000
    N3804    N        0.62311    0.77675    0.89179    1.000
    N3805    N        0.62333    0.84071    0.93067    1.000
    Si3806   Si       0.61643    0.87990    0.91644    1.000
    Si3807   Si       0.57764    0.77524    0.89048    1.000
    N3808    N        0.57660    0.87468    0.89174    1.000
    N3809    N        0.63542    0.87571    0.87328    1.000
    N3810    N        0.59142    0.89877    0.94897    1.000
    Si3811   Si       0.62156    0.92265    0.97084    1.000
    N3812    N        0.61934    0.96200    0.95519    1.000
    Si3813   Si       0.62403    0.99287    0.98572    1.000
    Si3814   Si       0.60045    0.96583    0.91369    1.000
    N3815    N        0.62609    0.95044    0.88187    1.000
    Si3816   Si       0.69615    0.12558    0.99993    1.000
    Si3817   Si       0.65126    0.15693    0.03930    1.000
    Si3818   Si       0.65720    0.21864    0.07801    1.000
    N3819    N        0.65937    0.19992    0.03883    1.000
    N3820    N        0.66857    0.18779    0.10841    1.000
    Si3821   Si       0.65822    0.22689    0.00492    1.000
    N3822    N        0.68634    0.24953    0.07981    1.000
    Si3823   Si       0.63719    0.15842    0.11115    1.000
    N3824    N        0.69181    0.13902    0.04345    1.000
    Si3825   Si       0.65062    0.02761    0.12303    1.000
    N3826    N        0.67942    0.03143    0.15762    1.000
    Si3827   Si       0.67921    0.06461    0.18598    1.000
    N3828    N        0.65857    0.12609    0.13268    1.000
    N3829    N        0.63782    0.07771    0.18048    1.000
    Si3830   Si       0.63952    0.25497    0.18198    1.000
    N3831    N        0.68414    0.25283    0.17992    1.000
    N3832    N        0.66404    0.04401    0.27629    1.000
    Si3833   Si       0.67987    0.08023    0.26017    1.000
    N3834    N        0.68265    0.08615    0.35131    1.000
    N3835    N        0.65078    0.12768    0.31147    1.000
    Si3836   Si       0.68750    0.00814    0.28954    1.000
    N3837    N        0.64796    0.10913    0.24899    1.000
    Si3838   Si       0.64931    0.07084    0.37360    1.000
    Si3839   Si       0.63758    0.01457    0.25642    1.000
    N3840    N        0.68690    0.18086    0.28856    1.000
    N3841    N        0.66548    0.20718    0.35574    1.000
    Si3842   Si       0.66195    0.14378    0.27227    1.000
    N3843    N        0.64275    0.17508    0.24699    1.000
    Si3844   Si       0.67682    0.20100    0.25212    1.000
    N3845    N        0.67587    0.24356    0.24847    1.000
    N3846    N        0.68983    0.08118    0.45942    1.000
    N3847    N        0.66842    0.03281    0.38556    1.000
    Si3848   Si       0.64949    0.07281    0.44702    1.000
    N3849    N        0.64042    0.09242    0.41004    1.000
    N3850    N        0.63409    0.03278    0.45754    1.000
    N3851    N        0.64781    0.21066    0.42131    1.000
    N3852    N        0.69306    0.20509    0.47101    1.000
    N3853    N        0.64202    0.15283    0.44986    1.000
    Si3854   Si       0.65169    0.19328    0.45873    1.000
    Si3855   Si       0.68058    0.20745    0.39708    1.000
    N3856    N        0.66912    0.06431    0.52970    1.000
    N3857    N        0.65771    0.04933    0.58886    1.000
    Si3858   Si       0.66611    0.02744    0.55128    1.000
    Si3859   Si       0.64760    0.08642    0.56234    1.000
    N3860    N        0.66836    0.12116    0.57669    1.000
    Si3861   Si       0.69000    0.09043    0.50269    1.000
    N3862    N        0.66856    0.12674    0.51084    1.000
    Si3863   Si       0.69184    0.12439    0.61186    1.000
    Si3864   Si       0.67549    0.15172    0.54603    1.000
    N3865    N        0.65680    0.23075    0.59541    1.000
    N3866    N        0.65069    0.18711    0.54198    1.000
    Si3867   Si       0.65912    0.22861    0.55251    1.000
    N3868    N        0.69694    0.23989    0.53159    1.000
    Si3869   Si       0.65784    0.11756    0.73608    1.000
    Si3870   Si       0.64909    0.04177    0.63119    1.000
    Si3871   Si       0.67653    0.03129    0.69942    1.000
    N3872    N        0.67257    0.11187    0.65013    1.000
    N3873    N        0.67991    0.05043    0.66075    1.000
    N3874    N        0.64800    0.08150    0.71529    1.000
    Si3875   Si       0.64184    0.09426    0.67400    1.000
    N3876    N        0.64131    0.01845    0.72230    1.000
    N3877    N        0.67367    0.14797    0.71101    1.000
    Si3878   Si       0.64077    0.16387    0.68748    1.000
    N3879    N        0.65825    0.18524    0.65446    1.000
    N3880    N        0.67199    0.24917    0.70403    1.000
    Si3881   Si       0.63581    0.20844    0.62692    1.000
    Si3882   Si       0.67431    0.08228    0.79278    1.000
    N3883    N        0.69277    0.10661    0.76014    1.000
    N3884    N        0.67883    0.16814    0.80409    1.000
    N3885    N        0.66992    0.23943    0.83865    1.000
    Si3886   Si       0.69183    0.21141    0.81191    1.000
    Si3887   Si       0.63711    0.15905    0.79646    1.000
    N3888    N        0.64024    0.18411    0.86729    1.000
    N3889    N        0.69488    0.22931    0.77187    1.000
    Si3890   Si       0.66734    0.25419    0.74665    1.000
    Si3891   Si       0.68524    0.01415    0.87553    1.000
    N3892    N        0.65093    0.03804    0.88792    1.000
    N3893    N        0.64975    0.11927    0.88860    1.000
    Si3894   Si       0.67574    0.05550    0.96455    1.000
    N3895    N        0.65938    0.01876    0.98014    1.000
    N3896    N        0.64385    0.07803    0.94461    1.000
    Si3897   Si       0.64347    0.07895    0.90012    1.000
    N3898    N        0.69366    0.08158    0.99429    1.000
    Si3899   Si       0.65121    0.17136    0.95881    1.000
    N3900    N        0.66575    0.21283    0.96397    1.000
    N3901    N        0.68645    0.15848    0.93735    1.000
    Si3902   Si       0.65816    0.22035    0.87712    1.000
    Si3903   Si       0.68732    0.13646    0.89924    1.000
    N3904    N        0.65281    0.14763    0.99652    1.000
    N3905    N        0.67953    0.32537    0.05363    1.000
    Si3906   Si       0.68312    0.28049    0.04973    1.000
    N3907    N        0.68374    0.26003    0.00985    1.000
    N3908    N        0.65117    0.49208    0.05694    1.000
    Si3909   Si       0.67400    0.40451    0.09576    1.000
    N3910    N        0.64382    0.40007    0.06412    1.000
    Si3911   Si       0.69315    0.50494    0.06272    1.000
    Si3912   Si       0.64114    0.48498    0.01596    1.000
    N3913    N        0.67542    0.37208    0.12539    1.000
    Si3914   Si       0.66616    0.37118    0.20229    1.000
    N3915    N        0.65318    0.36946    0.24413    1.000
    N3916    N        0.66167    0.43643    0.12335    1.000
    N3917    N        0.66208    0.41360    0.19221    1.000
    N3918    N        0.69044    0.47053    0.17301    1.000
    N3919    N        0.64190    0.50569    0.12563    1.000
    Si3920   Si       0.68290    0.49346    0.13585    1.000
    Si3921   Si       0.68503    0.47429    0.21731    1.000
    N3922    N        0.64241    0.47130    0.22649    1.000
    Si3923   Si       0.68425    0.43041    0.15884    1.000
    N3924    N        0.66746    0.30432    0.27283    1.000
    Si3925   Si       0.65548    0.30831    0.31616    1.000
    N3926    N        0.66528    0.35680    0.31453    1.000
    Si3927   Si       0.68424    0.36280    0.27641    1.000
    N3928    N        0.68099    0.30319    0.35105    1.000
    Si3929   Si       0.65479    0.38167    0.34809    1.000
    Si3930   Si       0.64380    0.27410    0.25051    1.000
    Si3931   Si       0.66685    0.25979    0.35901    1.000
    N3932    N        0.65329    0.25962    0.31641    1.000
    N3933    N        0.64007    0.49126    0.33644    1.000
    N3934    N        0.66388    0.42470    0.34502    1.000
    Si3935   Si       0.69642    0.44013    0.36988    1.000
    Si3936   Si       0.67215    0.37725    0.42323    1.000
    N3937    N        0.66089    0.34153    0.44784    1.000
    N3938    N        0.67872    0.36819    0.38312    1.000
    N3939    N        0.67370    0.27484    0.47546    1.000
    Si3940   Si       0.69191    0.31255    0.45475    1.000
    N3941    N        0.68693    0.46213    0.40817    1.000
    Si3942   Si       0.65901    0.47102    0.44096    1.000
    N3943    N        0.66676    0.45331    0.48016    1.000
    N3944    N        0.65616    0.33060    0.54738    1.000
    N3945    N        0.66512    0.34630    0.61096    1.000
    Si3946   Si       0.65894    0.27316    0.60871    1.000
    Si3947   Si       0.65078    0.37465    0.54254    1.000
    Si3948   Si       0.68863    0.33248    0.57658    1.000
    N3949    N        0.69199    0.28688    0.58411    1.000
    N3950    N        0.63983    0.38463    0.50064    1.000
    N3951    N        0.65717    0.42386    0.54768    1.000
    Si3952   Si       0.64474    0.42783    0.50732    1.000
    N3953    N        0.64944    0.35365    0.68070    1.000
    Si3954   Si       0.64143    0.26422    0.67682    1.000
    Si3955   Si       0.67408    0.33135    0.65170    1.000
    N3956    N        0.66588    0.28896    0.64861    1.000
    Si3957   Si       0.63630    0.48586    0.66141    1.000
    Si3958   Si       0.67755    0.42591    0.63590    1.000
    Si3959   Si       0.66354    0.39266    0.69521    1.000
    N3960    N        0.67023    0.38767    0.73886    1.000
    N3961    N        0.67255    0.46177    0.65999    1.000
    N3962    N        0.63582    0.40908    0.62636    1.000
    N3963    N        0.65739    0.35401    0.79304    1.000
    Si3964   Si       0.67214    0.28125    0.84513    1.000
    N3965    N        0.65500    0.36017    0.86380    1.000
    N3966    N        0.67789    0.29356    0.75326    1.000
    Si3967   Si       0.68710    0.32237    0.78324    1.000
    Si3968   Si       0.69540    0.38169    0.85689    1.000
    N3969    N        0.63619    0.30120    0.83416    1.000
    Si3970   Si       0.65763    0.49053    0.80141    1.000
    N3971    N        0.66300    0.49157    0.75822    1.000
    N3972    N        0.69289    0.40269    0.81682    1.000
    N3973    N        0.69554    0.47965    0.82425    1.000
    Si3974   Si       0.65831    0.33224    0.90043    1.000
    N3975    N        0.68169    0.29751    0.88506    1.000
    Si3976   Si       0.65356    0.36265    0.96051    1.000
    N3977    N        0.68261    0.34043    0.93470    1.000
    N3978    N        0.65082    0.44810    0.92248    1.000
    N3979    N        0.67210    0.38823    0.99058    1.000
    Si3980   Si       0.69530    0.44234    0.91766    1.000
    Si3981   Si       0.64572    0.41235    0.89597    1.000
    N3982    N        0.67155    0.48991    0.98357    1.000
    Si3983   Si       0.65916    0.44803    0.96863    1.000
    N3984    N        0.69018    0.40817    0.89186    1.000
    N3985    N        0.65931    0.60453    0.03978    1.000
    N3986    N        0.65393    0.56862    0.09293    1.000
    Si3987   Si       0.68776    0.58158    0.06783    1.000
    Si3988   Si       0.64672    0.71145    0.05468    1.000
    Si3989   Si       0.66567    0.64956    0.03798    1.000
    N3990    N        0.64764    0.67161    0.06837    1.000
    N3991    N        0.68883    0.72329    0.04372    1.000
    N3992    N        0.66202    0.66221    0.99689    1.000
    N3993    N        0.69309    0.53491    0.14728    1.000
    N3994    N        0.68869    0.61603    0.15224    1.000
    N3995    N        0.64529    0.55045    0.23347    1.000
    N3996    N        0.64775    0.61719    0.21477    1.000
    Si3997   Si       0.65360    0.54765    0.13093    1.000
    Si3998   Si       0.66779    0.59315    0.18155    1.000
    Si3999   Si       0.68766    0.54957    0.23722    1.000
    N4000    N        0.63682    0.56970    0.16423    1.000
    N4001    N        0.67585    0.75788    0.19911    1.000
    N4002    N        0.66911    0.72384    0.12789    1.000
    Si4003   Si       0.65042    0.66075    0.21972    1.000
    Si4004   Si       0.64526    0.69977    0.15600    1.000
    N4005    N        0.66591    0.69110    0.19268    1.000
    N4006    N        0.65454    0.55123    0.31077    1.000
    Si4007   Si       0.67412    0.51751    0.33607    1.000
    N4008    N        0.65895    0.67617    0.26106    1.000
    N4009    N        0.65159    0.68496    0.32744    1.000
    Si4010   Si       0.68394    0.68107    0.29791    1.000
    Si4011   Si       0.65031    0.72025    0.35123    1.000
    N4012    N        0.65227    0.75314    0.32319    1.000
    N4013    N        0.68978    0.73225    0.36889    1.000
    N4014    N        0.68055    0.53109    0.37895    1.000
    N4015    N        0.66093    0.58434    0.40631    1.000
    Si4016   Si       0.65140    0.53635    0.48579    1.000
    Si4017   Si       0.64892    0.60002    0.44629    1.000
    N4018    N        0.68332    0.59267    0.47111    1.000
    Si4019   Si       0.65316    0.62859    0.39285    1.000
    N4020    N        0.66122    0.51518    0.44367    1.000
    Si4021   Si       0.64444    0.54312    0.41383    1.000
    N4022    N        0.69320    0.70160    0.42942    1.000
    Si4023   Si       0.66659    0.72896    0.40646    1.000
    N4024    N        0.64585    0.64211    0.43416    1.000
    N4025    N        0.69183    0.64572    0.38384    1.000
    N4026    N        0.68022    0.61734    0.59969    1.000
    Si4027   Si       0.67607    0.59587    0.51353    1.000
    Si4028   Si       0.64812    0.52144    0.58277    1.000
    N4029    N        0.68760    0.51842    0.50529    1.000
    N4030    N        0.64449    0.56627    0.51713    1.000
    Si4031   Si       0.65363    0.58653    0.61613    1.000
    N4032    N        0.69150    0.51541    0.57675    1.000
    N4033    N        0.66564    0.63708    0.52441    1.000
    Si4034   Si       0.68165    0.66400    0.60560    1.000
    N4035    N        0.68622    0.69792    0.50093    1.000
    Si4036   Si       0.64612    0.71323    0.50219    1.000
    Si4037   Si       0.69373    0.66925    0.53261    1.000
    N4038    N        0.64859    0.75866    0.50661    1.000
    N4039    N        0.69213    0.68717    0.57106    1.000
    N4040    N        0.67796    0.75479    0.57341    1.000
    Si4041   Si       0.65420    0.54944    0.68925    1.000
    N4042    N        0.67127    0.56163    0.64938    1.000
    N4043    N        0.68777    0.54959    0.71862    1.000
    N4044    N        0.63678    0.50884    0.69630    1.000
    Si4045   Si       0.68211    0.62983    0.74494    1.000
    N4046    N        0.68838    0.72471    0.69197    1.000
    N4047    N        0.64419    0.67906    0.62423    1.000
    N4048    N        0.67093    0.66705    0.72300    1.000
    Si4049   Si       0.65816    0.56904    0.83448    1.000
    N4050    N        0.65514    0.61040    0.81737    1.000
    N4051    N        0.64764    0.53287    0.81289    1.000
    N4052    N        0.64054    0.62664    0.75250    1.000
    Si4053   Si       0.68829    0.64068    0.82068    1.000
    N4054    N        0.67421    0.68000    0.82991    1.000
    N4055    N        0.68261    0.75107    0.85589    1.000
    Si4056   Si       0.63882    0.68099    0.85596    1.000
    N4057    N        0.64008    0.62978    0.91754    1.000
    Si4058   Si       0.66144    0.52616    0.96176    1.000
    Si4059   Si       0.68138    0.62920    0.92736    1.000
    N4060    N        0.68866    0.61025    0.96754    1.000
    N4061    N        0.65321    0.55764    0.98940    1.000
    N4062    N        0.69614    0.53795    0.93920    1.000
    Si4063   Si       0.65624    0.59952    0.99637    1.000
    N4064    N        0.69408    0.66830    0.93720    1.000
    Si4065   Si       0.64226    0.74030    0.87143    1.000
    Si4066   Si       0.67781    0.70655    0.92892    1.000
    N4067    N        0.64921    0.72256    0.95868    1.000
    N4068    N        0.65451    0.70220    0.89214    1.000
    Si4069   Si       0.63022    0.69064    0.98181    1.000
    N4070    N        0.65418    0.77689    0.01036    1.000
    N4071    N        0.66887    0.84248    0.02532    1.000
    N4072    N        0.65467    0.85875    0.11527    1.000
    Si4073   Si       0.64001    0.87367    0.02083    1.000
    Si4074   Si       0.69411    0.76392    0.02356    1.000
    Si4075   Si       0.67477    0.88390    0.08471    1.000
    Si4076   Si       0.63882    0.81302    0.02775    1.000
    N4077    N        0.69255    0.91986    0.10093    1.000
    N4078    N        0.64771    0.89954    0.05435    1.000
    Si4079   Si       0.68408    0.99130    0.01098    1.000
    N4080    N        0.63986    0.97876    0.02294    1.000
    N4081    N        0.66420    0.01389    0.08357    1.000
    Si4082   Si       0.66715    0.78925    0.16849    1.000
    Si4083   Si       0.65097    0.77446    0.23197    1.000
    Si4084   Si       0.66137    0.86533    0.15808    1.000
    N4085    N        0.67811    0.83073    0.17917    1.000
    N4086    N        0.63993    0.79065    0.13116    1.000
    N4087    N        0.67898    0.91389    0.24050    1.000
    Si4088   Si       0.66486    0.95352    0.22671    1.000
    Si4089   Si       0.65393    0.00119    0.17950    1.000
    N4090    N        0.68089    0.96884    0.18935    1.000
    N4091    N        0.69316    0.89566    0.17010    1.000
    N4092    N        0.65991    0.80178    0.26603    1.000
    Si4093   Si       0.64631    0.84549    0.35689    1.000
    Si4094   Si       0.65172    0.84498    0.27985    1.000
    N4095    N        0.68914    0.85308    0.36107    1.000
    N4096    N        0.69417    0.85467    0.27773    1.000
    N4097    N        0.68346    0.91765    0.32678    1.000
    N4098    N        0.66828    0.98585    0.32172    1.000
    N4099    N        0.67091    0.98436    0.25657    1.000
    N4100    N        0.64305    0.88951    0.28862    1.000
    Si4101   Si       0.68934    0.89945    0.28528    1.000
    Si4102   Si       0.64068    0.91043    0.32670    1.000
    Si4103   Si       0.67442    0.78242    0.48277    1.000
    N4104    N        0.65180    0.81443    0.46131    1.000
    Si4105   Si       0.65378    0.80351    0.41901    1.000
    N4106    N        0.64353    0.76124    0.42290    1.000
    N4107    N        0.68822    0.99350    0.48372    1.000
    N4108    N        0.67841    0.91274    0.39785    1.000
    Si4109   Si       0.65589    0.99139    0.38371    1.000
    N4110    N        0.66221    0.97514    0.42377    1.000
    Si4111   Si       0.63758    0.90274    0.40266    1.000
    Si4112   Si       0.65063    0.99366    0.46091    1.000
    N4113    N        0.67213    0.82717    0.57237    1.000
    Si4114   Si       0.66045    0.78638    0.54722    1.000
    Si4115   Si       0.67988    0.84319    0.61355    1.000
    N4116    N        0.68947    0.80435    0.51686    1.000
    Si4117   Si       0.67179    0.76793    0.61481    1.000
    Si4118   Si       0.64096    0.85132    0.55322    1.000
    N4119    N        0.64482    0.87202    0.51397    1.000
    N4120    N        0.65845    0.89186    0.57365    1.000
    Si4121   Si       0.64154    0.91021    0.53793    1.000
    N4122    N        0.67896    0.93233    0.52874    1.000
    Si4123   Si       0.64603    0.90300    0.61487    1.000
    N4124    N        0.65013    0.86660    0.63685    1.000
    Si4125   Si       0.67843    0.82178    0.67498    1.000
    N4126    N        0.68131    0.80649    0.63602    1.000
    Si4127   Si       0.67992    0.76214    0.71313    1.000
    N4128    N        0.63697    0.76624    0.70492    1.000
    N4129    N        0.64425    0.95080    0.72227    1.000
    Si4130   Si       0.66823    0.97665    0.64578    1.000
    Si4131   Si       0.68244    0.97191    0.72453    1.000
    N4132    N        0.68723    0.98998    0.68434    1.000
    N4133    N        0.66839    0.93570    0.63330    1.000
    Si4134   Si       0.66049    0.84009    0.83885    1.000
    Si4135   Si       0.67518    0.79673    0.77282    1.000
    N4136    N        0.67896    0.80422    0.81461    1.000
    N4137    N        0.68772    0.86831    0.81757    1.000
    Si4138   Si       0.68889    0.86675    0.77318    1.000
    N4139    N        0.69092    0.75962    0.75440    1.000
    N4140    N        0.65103    0.88385    0.76227    1.000
    N4141    N        0.69290    0.92093    0.86913    1.000
    N4142    N        0.66985    0.99061    0.84177    1.000
    Si4143   Si       0.67398    0.97232    0.80238    1.000
    N4144    N        0.68721    0.98768    0.76529    1.000
    N4145    N        0.69345    0.93392    0.80090    1.000
    N4146    N        0.67698    0.82062    0.87924    1.000
    Si4147   Si       0.64538    0.80917    0.91027    1.000
    N4148    N        0.66864    0.78634    0.94002    1.000
    Si4149   Si       0.64292    0.76468    0.96864    1.000
    N4150    N        0.69646    0.86065    0.93601    1.000
    Si4151   Si       0.68242    0.89627    0.95480    1.000
    N4152    N        0.65327    0.89800    0.98774    1.000
    Si4153   Si       0.65189    0.91618    0.88372    1.000
    N4154    N        0.64876    0.90842    0.92624    1.000
    N4155    N        0.72333    0.11625    0.10089    1.000
    N4156    N        0.72363    0.04828    0.09846    1.000
    Si4157   Si       0.72591    0.05847    0.01154    1.000
    N4158    N        0.70607    0.02409    0.03144    1.000
    Si4159   Si       0.74733    0.08182    0.08380    1.000
    Si4160   Si       0.70474    0.01671    0.07518    1.000
    N4161    N        0.75168    0.07855    0.04179    1.000
    Si4162   Si       0.72628    0.14464    0.06887    1.000
    N4163    N        0.73409    0.18066    0.09354    1.000
    Si4164   Si       0.72823    0.25108    0.09153    1.000
    N4165    N        0.75213    0.23221    0.05740    1.000
    Si4166   Si       0.73312    0.03650    0.23967    1.000
    Si4167   Si       0.71754    0.04540    0.14058    1.000
    N4168    N        0.71376    0.08357    0.16116    1.000
    N4169    N        0.73294    0.12479    0.22021    1.000
    Si4170   Si       0.74433    0.08947    0.19377    1.000
    Si4171   Si       0.70259    0.12238    0.13818    1.000
    N4172    N        0.69923    0.06366    0.22455    1.000
    N4173    N        0.74454    0.01591    0.15498    1.000
    N4174    N        0.70637    0.19615    0.22050    1.000
    Si4175   Si       0.72660    0.16354    0.19976    1.000
    Si4176   Si       0.70864    0.24178    0.21634    1.000
    N4177    N        0.74589    0.23632    0.19241    1.000
    N4178    N        0.71898    0.23135    0.12958    1.000
    Si4179   Si       0.72224    0.25831    0.16250    1.000
    Si4180   Si       0.70749    0.19009    0.12549    1.000
    N4181    N        0.71292    0.16114    0.15820    1.000
    Si4182   Si       0.74053    0.12240    0.26253    1.000
    N4183    N        0.70182    0.11314    0.28025    1.000
    N4184    N        0.72907    0.02054    0.27972    1.000
    N4185    N        0.73741    0.04514    0.36903    1.000
    Si4186   Si       0.72150    0.08480    0.36903    1.000
    N4187    N        0.74135    0.10807    0.33875    1.000
    Si4188   Si       0.69735    0.12064    0.32405    1.000
    N4189    N        0.73574    0.21950    0.31857    1.000
    N4190    N        0.70632    0.15748    0.34641    1.000
    Si4191   Si       0.69937    0.19600    0.32824    1.000
    Si4192   Si       0.72857    0.10238    0.44473    1.000
    N4193    N        0.72163    0.11157    0.40292    1.000
    Si4194   Si       0.71014    0.01736    0.38815    1.000
    N4195    N        0.72611    0.01483    0.42732    1.000
    N4196    N        0.70879    0.17767    0.41158    1.000
    N4197    N        0.72657    0.14015    0.46826    1.000
    Si4198   Si       0.72970    0.14983    0.38163    1.000
    N4199    N        0.74668    0.25008    0.48695    1.000
    Si4200   Si       0.72214    0.17956    0.45150    1.000
    Si4201   Si       0.70329    0.24393    0.48869    1.000
    N4202    N        0.69606    0.24771    0.39083    1.000
    N4203    N        0.73116    0.09536    0.51258    1.000
    N4204    N        0.72328    0.09658    0.61618    1.000
    Si4205   Si       0.73439    0.14018    0.51182    1.000
    N4206    N        0.73614    0.22175    0.58556    1.000
    N4207    N        0.71807    0.16079    0.54460    1.000
    Si4208   Si       0.73529    0.18027    0.57978    1.000
    N4209    N        0.70541    0.16578    0.60765    1.000
    Si4210   Si       0.71826    0.25619    0.56592    1.000
    Si4211   Si       0.71292    0.07999    0.65491    1.000
    N4212    N        0.72673    0.09920    0.69319    1.000
    N4213    N        0.71112    0.04003    0.72400    1.000
    N4214    N        0.74368    0.04634    0.65964    1.000
    Si4215   Si       0.74643    0.06699    0.71579    1.000
    Si4216   Si       0.69946    0.18758    0.64490    1.000
    N4217    N        0.73656    0.22202    0.71268    1.000
    Si4218   Si       0.71512    0.14021    0.70395    1.000
    N4219    N        0.74396    0.14887    0.73551    1.000
    Si4220   Si       0.74678    0.23668    0.62539    1.000
    Si4221   Si       0.71106    0.24726    0.68638    1.000
    N4222    N        0.72737    0.16995    0.67202    1.000
    N4223    N        0.71014    0.22934    0.64806    1.000
    Si4224   Si       0.73599    0.11781    0.76406    1.000
    Si4225   Si       0.72274    0.06268    0.83031    1.000
    Si4226   Si       0.71328    0.02405    0.76547    1.000
    N4227    N        0.69945    0.04646    0.79792    1.000
    N4228    N        0.75385    0.01388    0.77648    1.000
    N4229    N        0.69897    0.10042    0.82686    1.000
    N4230    N        0.74902    0.13890    0.80085    1.000
    Si4231   Si       0.71269    0.14509    0.82346    1.000
    Si4232   Si       0.73533    0.23302    0.75443    1.000
    N4233    N        0.72892    0.19933    0.82942    1.000
    N4234    N        0.71481    0.15201    0.86779    1.000
    N4235    N        0.71540    0.04578    0.86970    1.000
    N4236    N        0.70859    0.04104    0.93920    1.000
    Si4237   Si       0.72658    0.06443    0.90691    1.000
    N4238    N        0.70939    0.10231    0.90829    1.000
    Si4239   Si       0.75109    0.12240    0.89234    1.000
    Si4240   Si       0.72939    0.19220    0.87220    1.000
    Si4241   Si       0.72977    0.16284    0.95068    1.000
    N4242    N        0.73385    0.14088    0.98822    1.000
    Si4243   Si       0.69803    0.22443    0.93752    1.000
    N4244    N        0.69703    0.21276    0.89455    1.000
    N4245    N        0.73336    0.20567    0.95410    1.000
    N4246    N        0.72799    0.29052    0.05048    1.000
    Si4247   Si       0.71586    0.32968    0.03222    1.000
    N4248    N        0.74299    0.35816    0.04556    1.000
    Si4249   Si       0.74173    0.37742    0.08409    1.000
    N4250    N        0.73911    0.34705    0.11741    1.000
    Si4251   Si       0.73177    0.44369    0.05120    1.000
    N4252    N        0.71185    0.47846    0.03332    1.000
    N4253    N        0.71218    0.41180    0.07593    1.000
    N4254    N        0.73915    0.42516    0.01357    1.000
    N4255    N        0.70731    0.48803    0.10079    1.000
    Si4256   Si       0.75060    0.48517    0.10405    1.000
    Si4257   Si       0.71179    0.36255    0.14736    1.000
    N4258    N        0.72222    0.28511    0.22517    1.000
    Si4259   Si       0.73156    0.31948    0.19852    1.000
    N4260    N        0.73356    0.29902    0.16121    1.000
    N4261    N        0.70144    0.35080    0.18739    1.000
    Si4262   Si       0.73854    0.48656    0.24375    1.000
    N4263    N        0.72041    0.40603    0.15109    1.000
    N4264    N        0.70966    0.45169    0.24624    1.000
    Si4265   Si       0.70758    0.30185    0.26069    1.000
    N4266    N        0.73772    0.28282    0.28589    1.000
    N4267    N        0.74158    0.35043    0.34960    1.000
    N4268    N        0.72084    0.34367    0.25401    1.000
    N4269    N        0.74983    0.27902    0.36089    1.000
    Si4270   Si       0.74790    0.26214    0.32221    1.000
    Si4271   Si       0.73900    0.38984    0.32932    1.000
    Si4272   Si       0.73416    0.42384    0.26935    1.000
    N4273    N        0.71376    0.39421    0.29338    1.000
    Si4274   Si       0.73383    0.49146    0.31903    1.000
    N4275    N        0.70608    0.48025    0.34977    1.000
    N4276    N        0.73317    0.41884    0.36059    1.000
    N4277    N        0.74740    0.45485    0.29927    1.000
    Si4278   Si       0.70436    0.33375    0.37274    1.000
    N4279    N        0.70777    0.31311    0.41206    1.000
    Si4280   Si       0.72807    0.27756    0.39706    1.000
    N4281    N        0.72557    0.32440    0.47745    1.000
    Si4282   Si       0.73275    0.42855    0.45608    1.000
    N4283    N        0.72631    0.47281    0.46385    1.000
    Si4284   Si       0.70627    0.49800    0.39124    1.000
    N4285    N        0.74809    0.50510    0.40104    1.000
    N4286    N        0.70287    0.39937    0.44351    1.000
    N4287    N        0.73002    0.34063    0.58650    1.000
    Si4288   Si       0.73907    0.37213    0.55833    1.000
    N4289    N        0.75336    0.27948    0.55388    1.000
    N4290    N        0.69572    0.37882    0.55474    1.000
    N4291    N        0.71090    0.45742    0.52998    1.000
    Si4292   Si       0.70985    0.48618    0.60241    1.000
    N4293    N        0.74522    0.41569    0.56039    1.000
    N4294    N        0.75094    0.47598    0.59279    1.000
    Si4295   Si       0.69962    0.42468    0.55943    1.000
    Si4296   Si       0.75131    0.44332    0.52733    1.000
    N4297    N        0.69455    0.44359    0.59999    1.000
    Si4298   Si       0.69776    0.47922    0.49592    1.000
    N4299    N        0.74989    0.27971    0.62329    1.000
    N4300    N        0.73771    0.28186    0.68970    1.000
    Si4301   Si       0.74777    0.30682    0.65664    1.000
    N4302    N        0.71859    0.33794    0.65594    1.000
    Si4303   Si       0.73345    0.37882    0.65600    1.000
    N4304    N        0.69567    0.39948    0.66807    1.000
    N4305    N        0.71463    0.50658    0.64264    1.000
    N4306    N        0.72116    0.49149    0.71556    1.000
    N4307    N        0.74980    0.45284    0.67412    1.000
    N4308    N        0.74715    0.40230    0.62304    1.000
    Si4309   Si       0.71251    0.47578    0.67328    1.000
    N4310    N        0.71936    0.34899    0.77016    1.000
    Si4311   Si       0.73665    0.31549    0.83840    1.000
    N4312    N        0.73097    0.35551    0.85605    1.000
    N4313    N        0.70051    0.30263    0.81813    1.000
    N4314    N        0.74261    0.28495    0.86906    1.000
    Si4315   Si       0.71646    0.43915    0.81011    1.000
    N4316    N        0.72614    0.42175    0.76992    1.000
    Si4317   Si       0.72395    0.47749    0.85819    1.000
    N4318    N        0.74532    0.44410    0.84335    1.000
    Si4319   Si       0.69639    0.38669    0.77478    1.000
    N4320    N        0.71520    0.31672    0.99004    1.000
    Si4321   Si       0.72153    0.33728    0.95168    1.000
    Si4322   Si       0.71692    0.27509    0.98541    1.000
    Si4323   Si       0.72049    0.28886    0.90627    1.000
    N4324    N        0.73730    0.37694    0.96183    1.000
    N4325    N        0.74936    0.31346    0.92801    1.000
    N4326    N        0.71024    0.26541    0.94248    1.000
    Si4327   Si       0.72524    0.50711    0.92750    1.000
    N4328    N        0.74266    0.49270    0.96419    1.000
    Si4329   Si       0.71271    0.47521    0.99082    1.000
    N4330    N        0.70114    0.44067    0.96193    1.000
    Si4331   Si       0.71403    0.40485    0.98442    1.000
    N4332    N        0.71247    0.47657    0.89950    1.000
    N4333    N        0.71359    0.60959    0.08724    1.000
    N4334    N        0.70972    0.54487    0.06058    1.000
    Si4335   Si       0.73665    0.62521    0.05377    1.000
    N4336    N        0.74228    0.59183    0.02458    1.000
    Si4337   Si       0.75422    0.55671    0.05318    1.000
    N4338    N        0.70851    0.65443    0.03720    1.000
    Si4339   Si       0.72124    0.69673    0.03356    1.000
    N4340    N        0.73918    0.75052    0.09476    1.000
    Si4341   Si       0.72464    0.61489    0.13025    1.000
    Si4342   Si       0.72826    0.54994    0.17326    1.000
    Si4343   Si       0.72781    0.59875    0.23342    1.000
    N4344    N        0.70421    0.57277    0.20160    1.000
    N4345    N        0.74685    0.57905    0.14359    1.000
    N4346    N        0.70289    0.51026    0.23451    1.000
    Si4347   Si       0.70891    0.74058    0.12679    1.000
    N4348    N        0.72732    0.72064    0.16117    1.000
    N4349    N        0.74992    0.64694    0.14298    1.000
    N4350    N        0.72497    0.71376    0.22728    1.000
    Si4351   Si       0.69774    0.72091    0.19503    1.000
    N4352    N        0.73125    0.64251    0.22813    1.000
    Si4353   Si       0.75796    0.67523    0.22684    1.000
    N4354    N        0.71346    0.52914    0.31050    1.000
    N4355    N        0.70212    0.59039    0.34493    1.000
    N4356    N        0.70441    0.57963    0.26552    1.000
    Si4357   Si       0.71362    0.63122    0.35156    1.000
    Si4358   Si       0.69620    0.56858    0.30632    1.000
    N4359    N        0.71512    0.65255    0.31420    1.000
    Si4360   Si       0.73853    0.72497    0.26524    1.000
    N4361    N        0.70363    0.71954    0.29370    1.000
    N4362    N        0.74538    0.73584    0.33945    1.000
    Si4363   Si       0.70152    0.74947    0.32583    1.000
    N4364    N        0.73166    0.57819    0.41072    1.000
    Si4365   Si       0.72313    0.59692    0.45061    1.000
    N4366    N        0.74877    0.57899    0.48051    1.000
    Si4367   Si       0.69700    0.57065    0.38430    1.000
    N4368    N        0.75075    0.70047    0.47494    1.000
    Si4369   Si       0.75053    0.65633    0.48234    1.000
    Si4370   Si       0.71429    0.66618    0.41452    1.000
    Si4371   Si       0.73260    0.72938    0.38048    1.000
    N4372    N        0.73022    0.64075    0.44761    1.000
    N4373    N        0.74465    0.68773    0.39280    1.000
    Si4374   Si       0.71015    0.71580    0.46637    1.000
    N4375    N        0.73030    0.56254    0.60417    1.000
    Si4376   Si       0.71506    0.59880    0.58214    1.000
    Si4377   Si       0.70767    0.53519    0.53966    1.000
    N4378    N        0.70477    0.58015    0.54289    1.000
    N4379    N        0.75059    0.52855    0.53777    1.000
    N4380    N        0.74130    0.63431    0.59261    1.000
    N4381    N        0.73238    0.64998    0.52218    1.000
    Si4382   Si       0.70878    0.72502    0.58430    1.000
    N4383    N        0.75318    0.72557    0.57098    1.000
    N4384    N        0.73702    0.56776    0.67069    1.000
    N4385    N        0.71400    0.61547    0.71788    1.000
    Si4386   Si       0.71224    0.54897    0.64144    1.000
    Si4387   Si       0.72419    0.57391    0.71284    1.000
    Si4388   Si       0.69693    0.51462    0.74447    1.000
    N4389    N        0.75076    0.74213    0.67022    1.000
    Si4390   Si       0.69985    0.69698    0.72065    1.000
    N4391    N        0.70588    0.74191    0.62656    1.000
    Si4392   Si       0.75050    0.65645    0.62995    1.000
    Si4393   Si       0.71637    0.71194    0.65935    1.000
    Si4394   Si       0.74491    0.64592    0.70503    1.000
    N4395    N        0.73552    0.68656    0.69749    1.000
    N4396    N        0.71228    0.67662    0.63550    1.000
    N4397    N        0.71893    0.52856    0.77965    1.000
    Si4398   Si       0.71013    0.52598    0.82274    1.000
    N4399    N        0.71675    0.62721    0.84964    1.000
    Si4400   Si       0.72180    0.58957    0.87037    1.000
    N4401    N        0.74475    0.51352    0.84713    1.000
    N4402    N        0.69938    0.56195    0.84435    1.000
    N4403    N        0.70439    0.63943    0.78129    1.000
    Si4404   Si       0.72610    0.73884    0.77246    1.000
    Si4405   Si       0.74341    0.66154    0.77458    1.000
    N4406    N        0.72280    0.69725    0.76034    1.000
    N4407    N        0.72739    0.73931    0.81469    1.000
    Si4408   Si       0.70178    0.71506    0.84012    1.000
    Si4409   Si       0.74735    0.65653    0.85319    1.000
    N4410    N        0.70703    0.60041    0.90865    1.000
    Si4411   Si       0.71158    0.57918    0.94585    1.000
    N4412    N        0.75386    0.57489    0.95517    1.000
    N4413    N        0.73183    0.69463    0.86565    1.000
    N4414    N        0.74767    0.64094    0.97463    1.000
    Si4415   Si       0.74464    0.71687    0.90100    1.000
    Si4416   Si       0.70396    0.65713    0.98028    1.000
    N4417    N        0.71124    0.73487    0.92626    1.000
    N4418    N        0.72559    0.69498    0.99076    1.000
    N4419    N        0.71194    0.86471    0.07039    1.000
    N4420    N        0.71256    0.79594    0.04799    1.000
    Si4421   Si       0.70866    0.83603    0.03706    1.000
    Si4422   Si       0.74699    0.78727    0.07368    1.000
    N4423    N        0.74393    0.84192    0.00925    1.000
    Si4424   Si       0.74942    0.88115    0.08062    1.000
    N4425    N        0.72771    0.98270    0.08795    1.000
    Si4426   Si       0.71553    0.94379    0.07235    1.000
    N4427    N        0.70078    0.95533    0.03392    1.000
    N4428    N        0.74856    0.91844    0.05957    1.000
    N4429    N        0.71660    0.80143    0.23049    1.000
    N4430    N        0.73195    0.86659    0.22064    1.000
    N4431    N        0.70742    0.78071    0.14446    1.000
    Si4432   Si       0.71588    0.83300    0.19788    1.000
    N4433    N        0.74927    0.83164    0.16789    1.000
    Si4434   Si       0.74964    0.79244    0.14774    1.000
    Si4435   Si       0.75302    0.98423    0.12361    1.000
    N4436    N        0.74996    0.88866    0.12315    1.000
    N4437    N        0.73961    0.93713    0.20983    1.000
    Si4438   Si       0.70949    0.90425    0.21028    1.000
    Si4439   Si       0.71736    0.91451    0.13860    1.000
    N4440    N        0.73774    0.00090    0.21410    1.000
    Si4441   Si       0.72357    0.97112    0.18436    1.000
    N4442    N        0.73651    0.95194    0.14768    1.000
    N4443    N        0.71048    0.78936    0.30943    1.000
    Si4444   Si       0.70390    0.81303    0.27345    1.000
    Si4445   Si       0.74308    0.86599    0.26504    1.000
    N4446    N        0.74971    0.82461    0.28036    1.000
    Si4447   Si       0.75167    0.80145    0.31764    1.000
    N4448    N        0.75235    0.81812    0.35834    1.000
    N4449    N        0.73652    0.96254    0.31919    1.000
    N4450    N        0.73426    0.90243    0.28843    1.000
    N4451    N        0.74068    0.90711    0.35975    1.000
    Si4452   Si       0.69952    0.89487    0.36329    1.000
    Si4453   Si       0.69765    0.95750    0.33708    1.000
    Si4454   Si       0.72110    0.83088    0.38506    1.000
    Si4455   Si       0.72650    0.78234    0.43346    1.000
    N4456    N        0.74213    0.85995    0.41063    1.000
    N4457    N        0.69674    0.80375    0.40926    1.000
    N4458    N        0.70574    0.75894    0.46448    1.000
    N4459    N        0.74970    0.75853    0.40645    1.000
    N4460    N        0.70059    0.97549    0.37689    1.000
    Si4461   Si       0.72693    0.98918    0.46355    1.000
    N4462    N        0.72273    0.94594    0.44571    1.000
    Si4463   Si       0.74950    0.92792    0.47674    1.000
    N4464    N        0.74075    0.88538    0.48083    1.000
    Si4465   Si       0.69466    0.94853    0.41282    1.000
    N4466    N        0.71903    0.87083    0.54718    1.000
    Si4467   Si       0.70993    0.82762    0.54954    1.000
    N4468    N        0.74378    0.80091    0.55807    1.000
    N4469    N        0.72001    0.85899    0.61866    1.000
    N4470    N        0.72203    0.92948    0.58600    1.000
    N4471    N        0.73962    0.96341    0.50320    1.000
    Si4472   Si       0.69742    0.90654    0.56046    1.000
    Si4473   Si       0.69895    0.96914    0.51806    1.000
    Si4474   Si       0.72764    0.99926    0.58520    1.000
    N4475    N        0.69576    0.99668    0.55381    1.000
    Si4476   Si       0.71214    0.93911    0.62781    1.000
    Si4477   Si       0.72244    0.82678    0.71857    1.000
    Si4478   Si       0.72768    0.77329    0.65020    1.000
    N4479    N        0.70687    0.79037    0.69282    1.000
    N4480    N        0.70668    0.85330    0.68768    1.000
    Si4481   Si       0.73011    0.87520    0.66046    1.000
    N4482    N        0.71740    0.94411    0.72606    1.000
    N4483    N        0.71187    0.98524    0.62487    1.000
    N4484    N        0.73080    0.91801    0.66005    1.000
    Si4485   Si       0.74761    0.93784    0.69520    1.000
    Si4486   Si       0.72769    0.00550    0.66291    1.000
    N4487    N        0.74108    0.79428    0.84922    1.000
    Si4488   Si       0.69810    0.79095    0.85099    1.000
    N4489    N        0.69822    0.82839    0.75434    1.000
    N4490    N        0.72380    0.88854    0.75894    1.000
    N4491    N        0.73605    0.97708    0.84104    1.000
    Si4492   Si       0.72107    0.93092    0.76687    1.000
    Si4493   Si       0.70556    0.90569    0.83083    1.000
    N4494    N        0.74918    0.90409    0.83750    1.000
    N4495    N        0.73993    0.85564    0.88252    1.000
    Si4496   Si       0.70945    0.77285    0.94459    1.000
    N4497    N        0.73038    0.80289    0.92317    1.000
    Si4498   Si       0.71023    0.83585    0.90454    1.000
    N4499    N        0.71866    0.77632    0.98714    1.000
    Si4500   Si       0.74723    0.87585    0.97976    1.000
    N4501    N        0.74802    0.93484    0.90021    1.000
    Si4502   Si       0.71890    0.99949    0.93785    1.000
    N4503    N        0.71812    0.90779    0.97853    1.000
    N4504    N        0.70996    0.97995    0.97575    1.000
    Si4505   Si       0.71798    0.95485    0.87486    1.000
    N4506    N        0.70182    0.98378    0.90214    1.000
    Si4507   Si       0.75397    0.89593    0.88028    1.000
    Si4508   Si       0.72654    0.94622    0.99876    1.000
    Si4509   Si       0.78614    0.07640    0.01546    1.000
    N4510    N        0.78479    0.09053    0.10410    1.000
    Si4511   Si       0.80019    0.12599    0.08161    1.000
    N4512    N        0.80050    0.11643    0.00459    1.000
    N4513    N        0.77099    0.14890    0.05655    1.000
    Si4514   Si       0.77116    0.14629    0.01164    1.000
    N4515    N        0.80174    0.21396    0.09222    1.000
    Si4516   Si       0.76971    0.19333    0.07173    1.000
    N4517    N        0.78113    0.18809    0.00180    1.000
    Si4518   Si       0.77480    0.02461    0.18876    1.000
    N4519    N        0.76569    0.05836    0.21798    1.000
    N4520    N        0.80378    0.04052    0.15590    1.000
    Si4521   Si       0.80165    0.08307    0.14417    1.000
    N4522    N        0.78133    0.10817    0.17516    1.000
    N4523    N        0.80503    0.12113    0.24500    1.000
    N4524    N        0.77165    0.17291    0.19971    1.000
    Si4525   Si       0.79690    0.13703    0.20560    1.000
    Si4526   Si       0.77659    0.21473    0.21338    1.000
    N4527    N        0.76466    0.08775    0.27930    1.000
    Si4528   Si       0.77796    0.09490    0.32079    1.000
    Si4529   Si       0.77803    0.03128    0.36147    1.000
    N4530    N        0.79848    0.07032    0.35055    1.000
    N4531    N        0.78864    0.01366    0.32163    1.000
    N4532    N        0.80981    0.12555    0.31810    1.000
    Si4533   Si       0.79282    0.07846    0.24825    1.000
    N4534    N        0.80284    0.19538    0.30841    1.000
    Si4535   Si       0.80355    0.14946    0.28202    1.000
    N4536    N        0.76677    0.22613    0.25500    1.000
    Si4537   Si       0.76248    0.20066    0.29103    1.000
    N4538    N        0.75971    0.15876    0.27853    1.000
    N4539    N        0.81281    0.23864    0.36995    1.000
    N4540    N        0.76180    0.01351    0.47768    1.000
    Si4541   Si       0.76507    0.03567    0.43590    1.000
    Si4542   Si       0.80279    0.09533    0.45512    1.000
    N4543    N        0.76504    0.07836    0.44353    1.000
    N4544    N        0.78756    0.01985    0.40157    1.000
    N4545    N        0.81235    0.24685    0.46489    1.000
    Si4546   Si       0.77179    0.23699    0.45339    1.000
    N4547    N        0.77153    0.15870    0.38228    1.000
    N4548    N        0.79989    0.13814    0.44717    1.000
    Si4549   Si       0.80571    0.15891    0.40680    1.000
    N4550    N        0.76570    0.19361    0.45425    1.000
    Si4551   Si       0.79230    0.16928    0.47662    1.000
    N4552    N        0.76270    0.25656    0.41710    1.000
    N4553    N        0.78689    0.03563    0.53435    1.000
    N4554    N        0.77409    0.10129    0.56312    1.000
    Si4555   Si       0.76838    0.07896    0.52563    1.000
    Si4556   Si       0.78794    0.01840    0.57507    1.000
    Si4557   Si       0.76071    0.07900    0.59942    1.000
    N4558    N        0.80367    0.08658    0.49897    1.000
    N4559    N        0.75022    0.03584    0.59120    1.000
    N4560    N        0.80869    0.24053    0.53044    1.000
    Si4561   Si       0.79372    0.14270    0.55462    1.000
    N4562    N        0.77681    0.15349    0.51572    1.000
    N4563    N        0.77573    0.16664    0.58597    1.000
    Si4564   Si       0.79805    0.18583    0.61762    1.000
    N4565    N        0.79464    0.08167    0.63068    1.000
    Si4566   Si       0.78690    0.05238    0.66174    1.000
    N4567    N        0.78567    0.04924    0.70705    1.000
    N4568    N        0.80777    0.01314    0.65402    1.000
    Si4569   Si       0.75995    0.19885    0.68513    1.000
    N4570    N        0.79377    0.18486    0.70886    1.000
    N4571    N        0.77454    0.21173    0.64658    1.000
    Si4572   Si       0.77741    0.17310    0.74740    1.000
    Si4573   Si       0.77468    0.05248    0.77998    1.000
    Si4574   Si       0.79419    0.08663    0.84262    1.000
    N4575    N        0.76696    0.06237    0.82126    1.000
    N4576    N        0.77882    0.12377    0.85832    1.000
    N4577    N        0.75591    0.08200    0.75550    1.000
    Si4578   Si       0.76990    0.20946    0.81515    1.000
    N4579    N        0.80165    0.18172    0.83131    1.000
    Si4580   Si       0.79292    0.14359    0.81262    1.000
    N4581    N        0.77817    0.25121    0.82502    1.000
    N4582    N        0.76549    0.20693    0.77260    1.000
    N4583    N        0.81015    0.15563    0.77024    1.000
    N4584    N        0.76565    0.08428    0.90821    1.000
    Si4585   Si       0.78454    0.02432    0.96183    1.000
    N4586    N        0.76352    0.05247    0.98649    1.000
    Si4587   Si       0.80783    0.07925    0.91114    1.000
    N4588    N        0.81396    0.04365    0.93659    1.000
    N4589    N        0.75747    0.26079    0.99643    1.000
    N4590    N        0.75851    0.15640    0.91817    1.000
    Si4591   Si       0.77458    0.25580    0.86813    1.000
    N4592    N        0.79574    0.22161    0.94819    1.000
    Si4593   Si       0.78574    0.19139    0.91534    1.000
    Si4594   Si       0.76487    0.22174    0.97889    1.000
    N4595    N        0.76617    0.21489    0.88429    1.000
    N4596    N        0.76357    0.27293    0.10803    1.000
    N4597    N        0.80267    0.28143    0.05100    1.000
    Si4598   Si       0.76376    0.26901    0.03731    1.000
    Si4599   Si       0.80179    0.25685    0.09032    1.000
    N4600    N        0.80667    0.40963    0.04018    1.000
    Si4601   Si       0.78175    0.42629    0.00760    1.000
    N4602    N        0.77015    0.40530    0.10272    1.000
    N4603    N        0.78833    0.46929    0.00856    1.000
    N4604    N        0.76652    0.46427    0.06853    1.000
    Si4605   Si       0.79669    0.42667    0.07859    1.000
    Si4606   Si       0.78969    0.49297    0.04477    1.000
    N4607    N        0.80038    0.32227    0.14087    1.000
    N4608    N        0.76744    0.34487    0.20250    1.000
    Si4609   Si       0.80449    0.34789    0.17614    1.000
    Si4610   Si       0.76000    0.31046    0.12815    1.000
    Si4611   Si       0.75876    0.36148    0.24240    1.000
    N4612    N        0.76404    0.46706    0.21283    1.000
    Si4613   Si       0.76012    0.42075    0.14336    1.000
    N4614    N        0.75580    0.40312    0.23768    1.000
    Si4615   Si       0.78403    0.42906    0.21680    1.000
    N4616    N        0.79060    0.42243    0.17420    1.000
    Si4617   Si       0.77671    0.48366    0.17544    1.000
    N4618    N        0.75784    0.46476    0.14031    1.000
    N4619    N        0.79387    0.35080    0.26402    1.000
    Si4620   Si       0.77606    0.26717    0.26659    1.000
    Si4621   Si       0.78613    0.34264    0.36287    1.000
    Si4622   Si       0.80940    0.37751    0.29652    1.000
    N4623    N        0.79132    0.26163    0.31016    1.000
    N4624    N        0.77833    0.40226    0.31210    1.000
    Si4625   Si       0.78552    0.44516    0.32343    1.000
    N4626    N        0.79728    0.44479    0.36581    1.000
    N4627    N        0.77379    0.50178    0.33647    1.000
    Si4628   Si       0.79500    0.50668    0.29901    1.000
    N4629    N        0.81235    0.46815    0.29946    1.000
    Si4630   Si       0.76385    0.33740    0.49028    1.000
    N4631    N        0.80482    0.30830    0.38635    1.000
    N4632    N        0.79662    0.36487    0.47751    1.000
    Si4633   Si       0.78493    0.26926    0.38314    1.000
    N4634    N        0.79282    0.37904    0.38673    1.000
    Si4635   Si       0.80637    0.47827    0.49651    1.000
    Si4636   Si       0.76991    0.41637    0.38632    1.000
    N4637    N        0.76229    0.43665    0.42364    1.000
    N4638    N        0.79445    0.49269    0.45646    1.000
    Si4639   Si       0.75911    0.48017    0.43614    1.000
    Si4640   Si       0.79479    0.40411    0.49714    1.000
    N4641    N        0.75528    0.42138    0.49224    1.000
    N4642    N        0.79384    0.31665    0.58603    1.000
    Si4643   Si       0.79542    0.32015    0.54241    1.000
    N4644    N        0.76369    0.35054    0.53226    1.000
    N4645    N        0.79078    0.30036    0.50273    1.000
    Si4646   Si       0.77217    0.26408    0.51826    1.000
    Si4647   Si       0.75200    0.30490    0.58900    1.000
    N4648    N        0.78715    0.46679    0.53559    1.000
    Si4649   Si       0.77213    0.49998    0.56177    1.000
    Si4650   Si       0.76202    0.43398    0.59830    1.000
    N4651    N        0.80529    0.43491    0.59290    1.000
    N4652    N        0.78914    0.32041    0.65930    1.000
    N4653    N        0.77229    0.32671    0.72828    1.000
    Si4654   Si       0.79230    0.34806    0.69326    1.000
    Si4655   Si       0.77034    0.28381    0.71913    1.000
    N4656    N        0.81407    0.27244    0.71087    1.000
    Si4657   Si       0.76398    0.47911    0.71299    1.000
    N4658    N        0.78221    0.43882    0.72717    1.000
    N4659    N        0.76876    0.38322    0.68318    1.000
    Si4660   Si       0.78149    0.42531    0.68556    1.000
    N4661    N        0.79106    0.50629    0.68953    1.000
    N4662    N        0.77329    0.31824    0.80484    1.000
    N4663    N        0.78219    0.37471    0.77160    1.000
    Si4664   Si       0.78180    0.27586    0.79132    1.000
    Si4665   Si       0.79910    0.35623    0.80850    1.000
    Si4666   Si       0.75811    0.33691    0.76735    1.000
    N4667    N        0.75396    0.27213    0.75927    1.000
    N4668    N        0.78993    0.38723    0.83760    1.000
    N4669    N        0.78202    0.49566    0.75269    1.000
    Si4670   Si       0.77036    0.41649    0.76102    1.000
    N4671    N        0.78949    0.43844    0.79313    1.000
    Si4672   Si       0.78938    0.42969    0.83551    1.000
    Si4673   Si       0.81076    0.46590    0.76641    1.000
    Si4674   Si       0.76953    0.36890    0.86980    1.000
    N4675    N        0.79919    0.33691    0.87805    1.000
    N4676    N        0.80158    0.27260    0.89849    1.000
    Si4677   Si       0.79372    0.31331    0.91802    1.000
    N4678    N        0.80154    0.34873    0.94360    1.000
    N4679    N        0.76580    0.39503    0.90381    1.000
    N4680    N        0.79143    0.41442    0.96718    1.000
    Si4681   Si       0.77561    0.38313    0.94388    1.000
    Si4682   Si       0.78526    0.48942    0.97086    1.000
    N4683    N        0.77771    0.53107    0.02923    1.000
    N4684    N        0.77938    0.58197    0.08067    1.000
    Si4685   Si       0.80408    0.61570    0.07508    1.000
    N4686    N        0.76522    0.52520    0.10108    1.000
    Si4687   Si       0.80855    0.55239    0.00614    1.000
    N4688    N        0.81185    0.62893    0.11379    1.000
    N4689    N        0.77735    0.64330    0.05409    1.000
    Si4690   Si       0.79249    0.68215    0.03943    1.000
    Si4691   Si       0.77280    0.72502    0.08903    1.000
    N4692    N        0.75804    0.70266    0.05536    1.000
    N4693    N        0.80864    0.74036    0.06891    1.000
    N4694    N        0.79771    0.68784    0.99753    1.000
    Si4695   Si       0.77956    0.56205    0.12014    1.000
    N4696    N        0.76216    0.52554    0.18102    1.000
    Si4697   Si       0.80525    0.53704    0.18099    1.000
    N4698    N        0.76857    0.58492    0.24109    1.000
    N4699    N        0.79541    0.64797    0.22370    1.000
    N4700    N        0.78061    0.69860    0.19738    1.000
    Si4701   Si       0.79089    0.65932    0.13629    1.000
    Si4702   Si       0.76944    0.72075    0.16258    1.000
    N4703    N        0.78375    0.70180    0.12354    1.000
    N4704    N        0.80390    0.55102    0.29256    1.000
    Si4705   Si       0.79573    0.61753    0.25269    1.000
    Si4706   Si       0.78689    0.54566    0.25004    1.000
    N4707    N        0.78275    0.56372    0.36441    1.000
    N4708    N        0.76774    0.51087    0.26429    1.000
    N4709    N        0.78137    0.63054    0.29160    1.000
    Si4710   Si       0.81077    0.57135    0.33202    1.000
    N4711    N        0.75538    0.62659    0.36846    1.000
    Si4712   Si       0.78653    0.71909    0.34030    1.000
    N4713    N        0.78562    0.67489    0.33376    1.000
    N4714    N        0.76106    0.68939    0.26928    1.000
    Si4715   Si       0.75524    0.66408    0.30326    1.000
    Si4716   Si       0.78030    0.52063    0.37450    1.000
    Si4717   Si       0.78820    0.59419    0.46682    1.000
    Si4718   Si       0.76751    0.59370    0.39305    1.000
    N4719    N        0.79611    0.60469    0.42557    1.000
    Si4720   Si       0.78541    0.72424    0.48216    1.000
    Si4721   Si       0.77879    0.66217    0.37468    1.000
    N4722    N        0.79830    0.75080    0.44873    1.000
    N4723    N        0.78710    0.63456    0.48707    1.000
    Si4724   Si       0.79379    0.75593    0.40587    1.000
    N4725    N        0.80605    0.72533    0.37907    1.000
    Si4726   Si       0.77111    0.56663    0.58787    1.000
    N4727    N        0.79441    0.52979    0.58618    1.000
    N4728    N        0.77022    0.59072    0.55138    1.000
    Si4729   Si       0.76623    0.56510    0.51888    1.000
    N4730    N        0.78926    0.58904    0.62140    1.000
    N4731    N        0.80468    0.56678    0.49699    1.000
    Si4732   Si       0.76203    0.63530    0.55283    1.000
    N4733    N        0.79549    0.65913    0.56443    1.000
    Si4734   Si       0.78748    0.69834    0.58136    1.000
    N4735    N        0.77638    0.75922    0.50772    1.000
    N4736    N        0.80275    0.57671    0.68690    1.000
    Si4737   Si       0.77145    0.59051    0.66137    1.000
    Si4738   Si       0.79705    0.54399    0.71330    1.000
    N4739    N        0.75985    0.55538    0.73337    1.000
    N4740    N        0.81100    0.75100    0.63351    1.000
    N4741    N        0.75958    0.63145    0.66806    1.000
    N4742    N        0.76782    0.64701    0.74233    1.000
    Si4743   Si       0.78693    0.72108    0.65265    1.000
    N4744    N        0.79733    0.71075    0.69366    1.000
    Si4745   Si       0.76036    0.72318    0.71049    1.000
    N4746    N        0.77926    0.68957    0.62430    1.000
    Si4747   Si       0.81174    0.64395    0.74559    1.000
    N4748    N        0.78971    0.55015    0.79437    1.000
    Si4749   Si       0.76042    0.53136    0.77032    1.000
    N4750    N        0.81117    0.51745    0.85831    1.000
    N4751    N        0.76234    0.57522    0.86936    1.000
    N4752    N        0.76558    0.66115    0.81371    1.000
    Si4753   Si       0.80501    0.64388    0.81947    1.000
    Si4754   Si       0.76161    0.75591    0.83850    1.000
    N4755    N        0.76100    0.74673    0.74787    1.000
    Si4756   Si       0.77343    0.53319    0.87030    1.000
    N4757    N        0.80648    0.53002    0.96867    1.000
    Si4758   Si       0.79354    0.60165    0.88336    1.000
    N4759    N        0.76297    0.52276    0.91214    1.000
    Si4760   Si       0.78599    0.55244    0.93711    1.000
    Si4761   Si       0.76261    0.60217    0.98671    1.000
    N4762    N        0.80777    0.59278    0.98857    1.000
    N4763    N        0.81329    0.57891    0.91533    1.000
    Si4764   Si       0.79652    0.66879    0.91237    1.000
    Si4765   Si       0.76421    0.68247    0.97122    1.000
    N4766    N        0.76734    0.69585    0.93049    1.000
    N4767    N        0.77642    0.64268    0.88358    1.000
    N4768    N        0.77245    0.74434    0.87881    1.000
    N4769    N        0.77422    0.79212    0.03857    1.000
    N4770    N        0.76582    0.80658    0.10759    1.000
    N4771    N        0.78877    0.86912    0.06486    1.000
    Si4772   Si       0.78776    0.85242    0.02428    1.000
    Si4773   Si       0.80911    0.81105    0.10595    1.000
    Si4774   Si       0.75373    0.79897    0.99977    1.000
    N4775    N        0.78429    0.89003    0.00191    1.000
    Si4776   Si       0.78303    0.91873    0.03509    1.000
    N4777    N        0.76856    0.95215    0.00775    1.000
    N4778    N        0.79562    0.98133    0.11424    1.000
    N4779    N        0.81174    0.85134    0.12321    1.000
    Si4780   Si       0.77449    0.86019    0.14545    1.000
    N4781    N        0.79640    0.87927    0.17773    1.000
    Si4782   Si       0.77726    0.85900    0.21174    1.000
    N4783    N        0.78627    0.81794    0.22364    1.000
    N4784    N        0.77815    0.76428    0.16368    1.000
    Si4785   Si       0.75705    0.79621    0.24666    1.000
    N4786    N        0.79844    0.98762    0.19749    1.000
    Si4787   Si       0.76834    0.96921    0.22458    1.000
    N4788    N        0.79312    0.79414    0.31928    1.000
    N4789    N        0.79634    0.86411    0.35593    1.000
    Si4790   Si       0.79954    0.82052    0.35578    1.000
    Si4791   Si       0.80197    0.76530    0.28832    1.000
    N4792    N        0.78745    0.87662    0.25127    1.000
    N4793    N        0.76346    0.75933    0.26693    1.000
    N4794    N        0.79672    0.92162    0.31308    1.000
    N4795    N        0.77629    0.96917    0.26672    1.000
    Si4796   Si       0.75773    0.99250    0.29688    1.000
    Si4797   Si       0.75352    0.92340    0.32100    1.000
    Si4798   Si       0.75377    0.85391    0.45256    1.000
    Si4799   Si       0.78514    0.78372    0.47389    1.000
    N4800    N        0.79685    0.85966    0.45235    1.000
    N4801    N        0.81125    0.79438    0.39381    1.000
    N4802    N        0.75475    0.80904    0.45747    1.000
    Si4803   Si       0.76955    0.88232    0.38289    1.000
    N4804    N        0.79600    0.91157    0.40306    1.000
    N4805    N        0.79438    0.92352    0.47623    1.000
    N4806    N        0.78863    0.84786    0.58822    1.000
    N4807    N        0.78219    0.84720    0.52082    1.000
    Si4808   Si       0.78450    0.82215    0.55502    1.000
    N4809    N        0.80200    0.78195    0.57278    1.000
    Si4810   Si       0.76644    0.76289    0.55180    1.000
    Si4811   Si       0.79802    0.78797    0.61650    1.000
    Si4812   Si       0.75370    0.88101    0.52183    1.000
    Si4813   Si       0.75965    0.84077    0.61949    1.000
    Si4814   Si       0.81112    0.93184    0.51754    1.000
    N4815    N        0.76276    0.98231    0.56446    1.000
    Si4816   Si       0.76213    0.93965    0.57251    1.000
    Si4817   Si       0.77024    0.99440    0.51767    1.000
    N4818    N        0.77565    0.91484    0.53706    1.000
    N4819    N        0.78729    0.93529    0.60717    1.000
    N4820    N        0.81008    0.97546    0.51433    1.000
    Si4821   Si       0.79603    0.85239    0.69130    1.000
    N4822    N        0.77082    0.85933    0.65731    1.000
    N4823    N        0.76405    0.84056    0.72143    1.000
    Si4824   Si       0.76219    0.87887    0.74451    1.000
    N4825    N        0.75720    0.79652    0.62683    1.000
    Si4826   Si       0.79957    0.98348    0.68328    1.000
    N4827    N        0.77493    0.90679    0.71313    1.000
    N4828    N        0.75655    0.97674    0.67871    1.000
    N4829    N        0.79327    0.84678    0.83358    1.000
    Si4830   Si       0.76807    0.82565    0.86306    1.000
    Si4831   Si       0.79588    0.76405    0.76831    1.000
    Si4832   Si       0.80812    0.84191    0.79392    1.000
    N4833    N        0.80819    0.80605    0.76859    1.000
    N4834    N        0.79544    0.75510    0.81024    1.000
    N4835    N        0.79254    0.87996    0.77563    1.000
    N4836    N        0.80096    0.98813    0.81953    1.000
    Si4837   Si       0.77451    0.90885    0.80229    1.000
    Si4838   Si       0.76138    0.98123    0.80457    1.000
    N4839    N        0.76114    0.94388    0.78335    1.000
    N4840    N        0.81416    0.91784    0.82188    1.000
    N4841    N        0.79314    0.81624    0.89776    1.000
    Si4842   Si       0.76817    0.82210    0.93319    1.000
    N4843    N        0.78567    0.80475    0.96986    1.000
    N4844    N        0.76877    0.86483    0.94431    1.000
    Si4845   Si       0.78002    0.95968    0.91806    1.000
    N4846    N        0.79927    0.89141    0.88673    1.000
    N4847    N        0.80702    0.96763    0.88457    1.000
    Si4848   Si       0.80484    0.95653    0.98438    1.000
    N4849    N        0.80944    0.99953    0.98800    1.000
    N4850    N        0.80103    0.93318    0.94619    1.000
    N4851    N        0.76231    0.99573    0.93722    1.000
    Si4852   Si       0.79905    0.89217    0.93307    1.000
    N4853    N        0.83838    0.10525    0.06714    1.000
    Si4854   Si       0.85484    0.11860    0.10681    1.000
    N4855    N        0.84036    0.03172    0.09294    1.000
    Si4856   Si       0.84225    0.02098    0.00963    1.000
    Si4857   Si       0.84407    0.06221    0.06145    1.000
    N4858    N        0.82041    0.05328    0.02785    1.000
    Si4859   Si       0.83950    0.13137    0.99944    1.000
    N4860    N        0.84451    0.17046    0.02336    1.000
    Si4861   Si       0.83371    0.19338    0.11217    1.000
    N4862    N        0.82625    0.15172    0.10812    1.000
    N4863    N        0.87034    0.20292    0.08944    1.000
    Si4864   Si       0.85963    0.11326    0.18046    1.000
    N4865    N        0.84368    0.09805    0.14356    1.000
    N4866    N        0.85707    0.09169    0.21838    1.000
    Si4867   Si       0.82359    0.01382    0.12797    1.000
    Si4868   Si       0.85352    0.13419    0.24059    1.000
    N4869    N        0.84066    0.20705    0.15155    1.000
    Si4870   Si       0.84430    0.19258    0.19183    1.000
    N4871    N        0.81940    0.22240    0.21215    1.000
    N4872    N        0.83874    0.15128    0.19870    1.000
    Si4873   Si       0.85839    0.24645    0.14744    1.000
    Si4874   Si       0.84019    0.25739    0.22389    1.000
    Si4875   Si       0.84089    0.06168    0.35708    1.000
    N4876    N        0.85729    0.04092    0.32128    1.000
    N4877    N        0.82176    0.05047    0.26418    1.000
    Si4878   Si       0.82573    0.02220    0.29823    1.000
    Si4879   Si       0.86157    0.06296    0.25231    1.000
    N4880    N        0.86792    0.09517    0.34832    1.000
    Si4881   Si       0.84258    0.13126    0.34689    1.000
    Si4882   Si       0.84844    0.18912    0.30396    1.000
    N4883    N        0.85739    0.23241    0.30894    1.000
    N4884    N        0.84513    0.16209    0.27133    1.000
    N4885    N        0.86295    0.16786    0.33865    1.000
    Si4886   Si       0.81770    0.23284    0.32805    1.000
    Si4887   Si       0.86201    0.05088    0.43335    1.000
    N4888    N        0.85015    0.03776    0.39103    1.000
    N4889    N        0.84268    0.08728    0.44337    1.000
    Si4890   Si       0.86265    0.11967    0.42374    1.000
    N4891    N        0.83546    0.01900    0.45112    1.000
    N4892    N        0.83786    0.13369    0.39037    1.000
    Si4893   Si       0.85634    0.18952    0.45074    1.000
    N4894    N        0.83277    0.18432    0.48694    1.000
    N4895    N        0.83087    0.19522    0.41726    1.000
    Si4896   Si       0.84588    0.23005    0.39605    1.000
    N4897    N        0.84220    0.06984    0.55900    1.000
    Si4898   Si       0.85910    0.10693    0.57069    1.000
    N4899    N        0.85396    0.02669    0.51616    1.000
    Si4900   Si       0.82483    0.05727    0.52270    1.000
    N4901    N        0.85751    0.11859    0.61325    1.000
    Si4902   Si       0.86213    0.02663    0.56010    1.000
    N4903    N        0.82763    0.01270    0.58866    1.000
    N4904    N        0.83710    0.14240    0.55067    1.000
    Si4905   Si       0.85538    0.17071    0.52316    1.000
    Si4906   Si       0.83619    0.23427    0.56160    1.000
    N4907    N        0.86266    0.21182    0.53311    1.000
    N4908    N        0.82531    0.21003    0.59413    1.000
    Si4909   Si       0.83905    0.23041    0.49907    1.000
    Si4910   Si       0.82311    0.11695    0.64097    1.000
    N4911    N        0.85648    0.04685    0.71269    1.000
    Si4912   Si       0.85769    0.08954    0.70719    1.000
    N4913    N        0.82528    0.09919    0.67925    1.000
    Si4914   Si       0.81851    0.03482    0.72843    1.000
    Si4915   Si       0.83118    0.17996    0.68224    1.000
    N4916    N        0.81461    0.15811    0.64847    1.000
    N4917    N        0.84586    0.22111    0.67447    1.000
    N4918    N        0.85555    0.16080    0.71346    1.000
    Si4919   Si       0.84262    0.08160    0.78335    1.000
    N4920    N        0.85789    0.02998    0.82827    1.000
    Si4921   Si       0.85726    0.04862    0.86654    1.000
    N4922    N        0.81786    0.04504    0.77284    1.000
    Si4923   Si       0.83177    0.01259    0.79870    1.000
    N4924    N        0.81694    0.10564    0.80884    1.000
    N4925    N        0.81961    0.06664    0.87125    1.000
    N4926    N        0.84341    0.10199    0.74562    1.000
    Si4927   Si       0.83292    0.19096    0.86019    1.000
    Si4928   Si       0.84933    0.24736    0.81420    1.000
    N4929    N        0.84084    0.23507    0.85545    1.000
    Si4930   Si       0.84996    0.14348    0.75341    1.000
    N4931    N        0.86600    0.16793    0.84642    1.000
    N4932    N        0.83997    0.10891    0.91947    1.000
    Si4933   Si       0.85151    0.02138    0.94164    1.000
    N4934    N        0.86443    0.02097    0.89807    1.000
    N4935    N        0.86595    0.03979    0.97790    1.000
    Si4936   Si       0.82412    0.19350    0.99031    1.000
    Si4937   Si       0.82838    0.24979    0.95224    1.000
    N4938    N        0.83428    0.16052    0.96329    1.000
    N4939    N        0.82556    0.18100    0.90059    1.000
    N4940    N        0.84239    0.23250    0.99034    1.000
    N4941    N        0.86071    0.24513    0.92305    1.000
    Si4942   Si       0.84528    0.15129    0.92463    1.000
    N4943    N        0.84692    0.32852    0.08310    1.000
    Si4944   Si       0.83330    0.31189    0.04433    1.000
    N4945    N        0.82841    0.34439    0.01489    1.000
    N4946    N        0.86837    0.28660    0.03291    1.000
    N4947    N        0.83586    0.26806    0.11609    1.000
    Si4948   Si       0.84121    0.38651    0.02451    1.000
    N4949    N        0.83046    0.43442    0.10452    1.000
    Si4950   Si       0.85735    0.45922    0.08278    1.000
    N4951    N        0.83189    0.48740    0.05715    1.000
    Si4952   Si       0.86331    0.50703    0.03369    1.000
    Si4953   Si       0.84019    0.31016    0.12212    1.000
    N4954    N        0.83758    0.33486    0.20372    1.000
    N4955    N        0.85631    0.27043    0.18461    1.000
    N4956    N        0.83272    0.37972    0.15646    1.000
    Si4957   Si       0.82420    0.32651    0.24486    1.000
    N4958    N        0.87260    0.32565    0.14578    1.000
    Si4959   Si       0.87130    0.31008    0.18712    1.000
    N4960    N        0.81048    0.28397    0.24427    1.000
    N4961    N        0.86190    0.44645    0.16505    1.000
    N4962    N        0.81717    0.49644    0.16999    1.000
    Si4963   Si       0.82879    0.42156    0.14881    1.000
    N4964    N        0.82008    0.43150    0.24057    1.000
    Si4965   Si       0.85800    0.48779    0.15537    1.000
    Si4966   Si       0.85464    0.33583    0.34212    1.000
    N4967    N        0.86137    0.34726    0.25796    1.000
    N4968    N        0.86870    0.30557    0.31274    1.000
    N4969    N        0.81550    0.34875    0.32988    1.000
    N4970    N        0.86036    0.47766    0.35878    1.000
    Si4971   Si       0.83844    0.44443    0.27598    1.000
    N4972    N        0.84483    0.40834    0.30050    1.000
    N4973    N        0.85492    0.41066    0.36970    1.000
    Si4974   Si       0.82426    0.28753    0.47638    1.000
    Si4975   Si       0.83753    0.35587    0.46383    1.000
    N4976    N        0.83995    0.31497    0.44846    1.000
    Si4977   Si       0.84517    0.30598    0.40620    1.000
    N4978    N        0.85596    0.34196    0.38401    1.000
    N4979    N        0.86552    0.26975    0.40345    1.000
    Si4980   Si       0.83725    0.38008    0.39482    1.000
    N4981    N        0.86472    0.36897    0.49516    1.000
    N4982    N        0.84551    0.38991    0.43793    1.000
    N4983    N        0.82048    0.43678    0.48360    1.000
    Si4984   Si       0.82957    0.50146    0.43267    1.000
    N4985    N        0.84292    0.46035    0.42300    1.000
    Si4986   Si       0.85280    0.43093    0.45594    1.000
    Si4987   Si       0.83785    0.45002    0.38120    1.000
    N4988    N        0.83918    0.32464    0.53844    1.000
    Si4989   Si       0.84658    0.36743    0.53530    1.000
    N4990    N        0.86969    0.26166    0.56684    1.000
    N4991    N        0.86130    0.27197    0.49883    1.000
    N4992    N        0.83696    0.35613    0.61772    1.000
    Si4993   Si       0.86774    0.38391    0.60926    1.000
    Si4994   Si       0.87540    0.26850    0.61042    1.000
    Si4995   Si       0.86896    0.29460    0.53817    1.000
    Si4996   Si       0.87105    0.49572    0.53411    1.000
    N4997    N        0.81605    0.40056    0.53460    1.000
    N4998    N        0.86002    0.45724    0.55147    1.000
    Si4999   Si       0.82045    0.44024    0.55157    1.000
    N5000    N        0.83872    0.50458    0.50738    1.000
    Si5001   Si       0.81467    0.31774    0.62401    1.000
    N5002    N        0.83389    0.35290    0.69779    1.000
    N5003    N        0.83592    0.27845    0.63090    1.000
    Si5004   Si       0.83790    0.26531    0.67343    1.000
    Si5005   Si       0.86518    0.32856    0.71130    1.000
    N5006    N        0.87279    0.28815    0.68969    1.000
    Si5007   Si       0.83322    0.44512    0.62420    1.000
    N5008    N        0.86198    0.49296    0.69233    1.000
    N5009    N        0.83299    0.48874    0.62876    1.000
    N5010    N        0.81686    0.44158    0.66423    1.000
    Si5011   Si       0.82465    0.48617    0.67148    1.000
    N5012    N        0.83786    0.33843    0.81977    1.000
    Si5013   Si       0.86466    0.31985    0.79274    1.000
    Si5014   Si       0.84085    0.33920    0.86463    1.000
    N5015    N        0.85263    0.31494    0.75138    1.000
    N5016    N        0.82314    0.26162    0.78050    1.000
    N5017    N        0.86210    0.37709    0.87264    1.000
    Si5018   Si       0.84184    0.27505    0.74326    1.000
    Si5019   Si       0.83443    0.48833    0.83819    1.000
    N5020    N        0.82940    0.49204    0.79676    1.000
    N5021    N        0.82527    0.44695    0.85439    1.000
    N5022    N        0.84435    0.44447    0.75354    1.000
    N5023    N        0.86320    0.30201    0.87971    1.000
    Si5024   Si       0.83142    0.33148    0.97311    1.000
    Si5025   Si       0.84487    0.26291    0.88838    1.000
    N5026    N        0.81927    0.29072    0.95897    1.000
    N5027    N        0.86918    0.34490    0.96344    1.000
    Si5028   Si       0.83106    0.43081    0.95845    1.000
    N5029    N        0.85338    0.42604    0.92102    1.000
    N5030    N        0.86947    0.48828    0.99514    1.000
    N5031    N        0.85441    0.41844    0.99402    1.000
    N5032    N        0.81948    0.47219    0.95031    1.000
    Si5033   Si       0.85336    0.41867    0.87759    1.000
    Si5034   Si       0.84630    0.50385    0.96253    1.000
    N5035    N        0.84250    0.60961    0.05693    1.000
    N5036    N        0.84633    0.54693    0.02694    1.000
    Si5037   Si       0.86360    0.57260    0.05594    1.000
    N5038    N        0.86996    0.55554    0.09678    1.000
    Si5039   Si       0.85705    0.64705    0.04433    1.000
    N5040    N        0.83088    0.67897    0.05972    1.000
    Si5041   Si       0.84567    0.71907    0.07088    1.000
    N5042    N        0.86367    0.72547    0.11028    1.000
    N5043    N        0.85236    0.64595    0.00095    1.000
    N5044    N        0.81645    0.55878    0.14494    1.000
    Si5045   Si       0.85328    0.56760    0.23827    1.000
    Si5046   Si       0.85981    0.56068    0.13986    1.000
    N5047    N        0.81976    0.54715    0.22131    1.000
    N5048    N        0.87182    0.59796    0.15622    1.000
    N5049    N        0.86172    0.66884    0.22188    1.000
    Si5050   Si       0.84930    0.63188    0.13881    1.000
    N5051    N        0.83568    0.72673    0.17097    1.000
    Si5052   Si       0.85675    0.69799    0.14407    1.000
    N5053    N        0.82802    0.66405    0.16267    1.000
    Si5054   Si       0.82138    0.67943    0.20272    1.000
    N5055    N        0.83162    0.61052    0.33556    1.000
    N5056    N        0.84563    0.54663    0.34123    1.000
    N5057    N        0.83819    0.60589    0.25436    1.000
    Si5058   Si       0.86262    0.64435    0.25856    1.000
    N5059    N        0.84385    0.66530    0.29100    1.000
    Si5060   Si       0.84996    0.70653    0.30588    1.000
    N5061    N        0.86501    0.70404    0.34775    1.000
    N5062    N        0.81378    0.72846    0.30822    1.000
    Si5063   Si       0.81443    0.64464    0.31614    1.000
    Si5064   Si       0.85502    0.51744    0.37253    1.000
    N5065    N        0.84697    0.53933    0.44877    1.000
    Si5066   Si       0.83156    0.62754    0.41670    1.000
    N5067    N        0.86554    0.60168    0.40059    1.000
    Si5068   Si       0.84013    0.54636    0.49224    1.000
    N5069    N        0.81737    0.51399    0.39298    1.000
    Si5070   Si       0.83871    0.69747    0.38291    1.000
    N5071    N        0.81900    0.69950    0.48833    1.000
    Si5072   Si       0.82405    0.65675    0.48873    1.000
    N5073    N        0.84518    0.64490    0.45310    1.000
    N5074    N        0.82030    0.65960    0.39014    1.000
    N5075    N        0.86336    0.70490    0.41692    1.000
    N5076    N        0.84084    0.59431    0.57366    1.000
    Si5077   Si       0.83256    0.52197    0.60217    1.000
    N5078    N        0.86033    0.52475    0.56749    1.000
    Si5079   Si       0.83035    0.59100    0.61700    1.000
    Si5080   Si       0.86987    0.56943    0.55606    1.000
    Si5081   Si       0.83403    0.63843    0.56434    1.000
    N5082    N        0.82758    0.71432    0.57432    1.000
    N5083    N        0.84653    0.64734    0.52543    1.000
    N5084    N        0.86127    0.65297    0.59520    1.000
    Si5085   Si       0.86555    0.69675    0.58841    1.000
    Si5086   Si       0.83750    0.75509    0.56520    1.000
    N5087    N        0.85455    0.75446    0.52511    1.000
    N5088    N        0.85216    0.55438    0.62426    1.000
    N5089    N        0.83579    0.53653    0.73679    1.000
    N5090    N        0.84825    0.61315    0.64925    1.000
    Si5091   Si       0.83899    0.59940    0.69021    1.000
    Si5092   Si       0.87025    0.53141    0.71185    1.000
    N5093    N        0.84229    0.63212    0.71722    1.000
    N5094    N        0.82756    0.75492    0.73747    1.000
    Si5095   Si       0.82992    0.71296    0.72226    1.000
    Si5096   Si       0.85278    0.75064    0.63099    1.000
    N5097    N        0.86933    0.71244    0.63001    1.000
    N5098    N        0.84981    0.56429    0.79938    1.000
    Si5099   Si       0.82713    0.53188    0.78005    1.000
    Si5100   Si       0.85682    0.60708    0.85600    1.000
    N5101    N        0.81484    0.60740    0.84291    1.000
    N5102    N        0.81304    0.62170    0.78275    1.000
    Si5103   Si       0.81251    0.58427    0.80660    1.000
    N5104    N        0.83679    0.67312    0.82271    1.000
    Si5105   Si       0.85629    0.68875    0.78793    1.000
    N5106    N        0.82501    0.68407    0.75556    1.000
    N5107    N        0.86664    0.72856    0.80355    1.000
    Si5108   Si       0.85021    0.68136    0.86370    1.000
    N5109    N        0.84178    0.75649    0.86392    1.000
    Si5110   Si       0.83898    0.75605    0.81975    1.000
    Si5111   Si       0.83628    0.61811    0.96951    1.000
    Si5112   Si       0.85670    0.57081    0.92108    1.000
    N5113    N        0.86817    0.57301    0.87925    1.000
    N5114    N        0.86586    0.52979    0.93389    1.000
    N5115    N        0.87235    0.59956    0.95219    1.000
    N5116    N        0.82059    0.65326    0.94578    1.000
    Si5117   Si       0.81457    0.74041    0.89369    1.000
    N5118    N        0.82001    0.69794    0.89036    1.000
    Si5119   Si       0.83572    0.67980    0.97770    1.000
    N5120    N        0.85915    0.64057    0.88240    1.000
    Si5121   Si       0.85400    0.83659    0.04665    1.000
    N5122    N        0.83045    0.80754    0.06690    1.000
    N5123    N        0.82957    0.84525    0.01078    1.000
    N5124    N        0.86279    0.87074    0.07248    1.000
    Si5125   Si       0.82394    0.88009    0.09159    1.000
    N5126    N        0.83242    0.76717    0.00497    1.000
    Si5127   Si       0.87310    0.76643    0.11979    1.000
    Si5128   Si       0.81359    0.77654    0.04351    1.000
    Si5129   Si       0.85331    0.95143    0.03685    1.000
    N5130    N        0.86079    0.96723    0.09025    1.000
    N5131    N        0.86278    0.99426    0.03469    1.000
    Si5132   Si       0.82181    0.95158    0.09557    1.000
    N5133    N        0.81678    0.93638    0.05560    1.000
    N5134    N        0.82920    0.91436    0.11646    1.000
    N5135    N        0.83410    0.78318    0.12699    1.000
    N5136    N        0.84544    0.79274    0.19364    1.000
    Si5137   Si       0.82941    0.81210    0.22901    1.000
    N5138    N        0.84684    0.85251    0.23045    1.000
    Si5139   Si       0.82200    0.76837    0.16785    1.000
    N5140    N        0.86880    0.87505    0.16299    1.000
    Si5141   Si       0.86212    0.93077    0.22169    1.000
    N5142    N        0.85477    0.99285    0.15058    1.000
    N5143    N        0.83791    0.93005    0.18548    1.000
    Si5144   Si       0.83219    0.89740    0.15670    1.000
    N5145    N        0.86656    0.97435    0.22090    1.000
    Si5146   Si       0.83766    0.97332    0.18458    1.000
    N5147    N        0.84066    0.86581    0.29971    1.000
    N5148    N        0.83294    0.78082    0.26033    1.000
    N5149    N        0.84529    0.82122    0.35103    1.000
    Si5150   Si       0.82927    0.87765    0.26026    1.000
    Si5151   Si       0.82065    0.88840    0.33181    1.000
    N5152    N        0.83698    0.98253    0.28357    1.000
    N5153    N        0.85250    0.90981    0.35427    1.000
    N5154    N        0.83704    0.92060    0.25631    1.000
    Si5155   Si       0.81236    0.94786    0.28057    1.000
    N5156    N        0.82191    0.80373    0.48502    1.000
    Si5157   Si       0.85239    0.80656    0.39030    1.000
    Si5158   Si       0.85865    0.78351    0.49262    1.000
    N5159    N        0.86389    0.84197    0.41265    1.000
    Si5160   Si       0.81193    0.84540    0.48943    1.000
    N5161    N        0.84916    0.86438    0.49910    1.000
    N5162    N        0.86615    0.96526    0.47847    1.000
    Si5163   Si       0.83530    0.92682    0.39011    1.000
    Si5164   Si       0.83704    0.99716    0.48808    1.000
    N5165    N        0.85156    0.91065    0.43223    1.000
    Si5166   Si       0.82645    0.00487    0.40960    1.000
    Si5167   Si       0.86835    0.95267    0.43575    1.000
    N5168    N        0.84212    0.96685    0.40390    1.000
    Si5169   Si       0.81090    0.90011    0.44340    1.000
    N5170    N        0.85546    0.84860    0.57069    1.000
    Si5171   Si       0.82857    0.85591    0.60399    1.000
    Si5172   Si       0.85980    0.87742    0.53880    1.000
    N5173    N        0.86877    0.76443    0.59319    1.000
    N5174    N        0.84562    0.91876    0.54039    1.000
    N5175    N        0.82402    0.81901    0.63071    1.000
    Si5176   Si       0.85065    0.81567    0.66379    1.000
    Si5177   Si       0.83572    0.79786    0.73303    1.000
    N5178    N        0.82415    0.81971    0.69654    1.000
    N5179    N        0.86734    0.77570    0.66271    1.000
    N5180    N        0.83228    0.88247    0.68987    1.000
    Si5181   Si       0.85317    0.97212    0.74141    1.000
    N5182    N        0.85707    0.96204    0.62661    1.000
    Si5183   Si       0.81716    0.91731    0.70928    1.000
    N5184    N        0.81589    0.94476    0.67436    1.000
    Si5185   Si       0.84249    0.00368    0.62973    1.000
    N5186    N        0.82121    0.99147    0.72132    1.000
    N5187    N        0.83745    0.89281    0.62491    1.000
    Si5188   Si       0.86522    0.88642    0.65868    1.000
    N5189    N        0.83649    0.93036    0.74601    1.000
    Si5190   Si       0.82178    0.93426    0.63251    1.000
    N5191    N        0.84927    0.85955    0.79437    1.000
    N5192    N        0.86530    0.79199    0.81633    1.000
    N5193    N        0.85977    0.88274    0.86107    1.000
    Si5194   Si       0.81675    0.88269    0.84999    1.000
    Si5195   Si       0.83642    0.90627    0.78349    1.000
    N5196    N        0.86144    0.96412    0.84957    1.000
    N5197    N        0.86087    0.98396    0.78402    1.000
    Si5198   Si       0.81892    0.95811    0.84452    1.000
    Si5199   Si       0.84993    0.85696    0.97529    1.000
    N5200    N        0.85265    0.81952    0.94956    1.000
    Si5201   Si       0.83187    0.80277    0.91018    1.000
    N5202    N        0.82350    0.76364    0.93010    1.000
    Si5203   Si       0.82509    0.78864    0.96780    1.000
    N5204    N        0.86824    0.81126    0.88852    1.000
    N5205    N        0.84249    0.88790    0.94373    1.000
    N5206    N        0.85245    0.97949    0.93933    1.000
    N5207    N        0.84472    0.93890    0.99308    1.000
    Si5208   Si       0.84682    0.93593    0.94631    1.000
    Si5209   Si       0.86701    0.88970    0.90374    1.000
    Si5210   Si       0.86834    0.97560    0.89154    1.000
    N5211    N        0.88439    0.05161    0.05323    1.000
    N5212    N        0.89677    0.11126    0.10376    1.000
    Si5213   Si       0.92584    0.06300    0.04341    1.000
    Si5214   Si       0.91160    0.13320    0.01540    1.000
    N5215    N        0.87720    0.10980    0.99560    1.000
    N5216    N        0.92984    0.05845    0.99852    1.000
    N5217    N        0.93285    0.10670    0.04238    1.000
    Si5218   Si       0.87595    0.01254    0.07173    1.000
    Si5219   Si       0.92620    0.13420    0.07676    1.000
    Si5220   Si       0.87657    0.25379    0.00757    1.000
    N5221    N        0.89503    0.22326    0.03369    1.000
    Si5222   Si       0.90319    0.23382    0.08928    1.000
    N5223    N        0.90513    0.16087    0.04882    1.000
    Si5224   Si       0.87251    0.18798    0.04828    1.000
    Si5225   Si       0.92219    0.12174    0.13817    1.000
    Si5226   Si       0.92681    0.03057    0.23253    1.000
    N5227    N        0.92375    0.01411    0.19250    1.000
    N5228    N        0.88471    0.20085    0.20713    1.000
    N5229    N        0.89896    0.13194    0.17233    1.000
    Si5230   Si       0.90930    0.16273    0.20217    1.000
    N5231    N        0.89818    0.24438    0.13199    1.000
    Si5232   Si       0.90586    0.23493    0.22561    1.000
    N5233    N        0.89921    0.13790    0.23670    1.000
    Si5234   Si       0.89306    0.06800    0.31479    1.000
    N5235    N        0.88816    0.08787    0.27688    1.000
    Si5236   Si       0.92170    0.10529    0.25213    1.000
    N5237    N        0.92413    0.03467    0.31395    1.000
    Si5238   Si       0.90439    0.11044    0.36872    1.000
    N5239    N        0.88772    0.02832    0.25053    1.000
    Si5240   Si       0.89720    0.18521    0.35716    1.000
    N5241    N        0.92405    0.19742    0.32372    1.000
    N5242    N        0.87857    0.25913    0.24811    1.000
    N5243    N        0.89706    0.09803    0.40891    1.000
    N5244    N        0.90253    0.03972    0.43991    1.000
    Si5245   Si       0.92445    0.07686    0.43717    1.000
    N5246    N        0.92433    0.10348    0.47145    1.000
    N5247    N        0.88025    0.15323    0.44774    1.000
    N5248    N        0.91897    0.15130    0.37487    1.000
    Si5249   Si       0.89886    0.24352    0.41764    1.000
    N5250    N        0.88179    0.22469    0.45357    1.000
    N5251    N        0.88794    0.21530    0.38661    1.000
    Si5252   Si       0.90933    0.14503    0.47754    1.000
    Si5253   Si       0.89776    0.25910    0.47675    1.000
    N5254    N        0.90051    0.10131    0.55977    1.000
    N5255    N        0.90061    0.03530    0.58230    1.000
    Si5256   Si       0.92556    0.06624    0.56151    1.000
    Si5257   Si       0.91931    0.13944    0.55100    1.000
    N5258    N        0.90557    0.16246    0.58457    1.000
    N5259    N        0.89263    0.15105    0.51616    1.000
    Si5260   Si       0.91822    0.20200    0.59985    1.000
    Si5261   Si       0.89805    0.23525    0.54240    1.000
    Si5262   Si       0.89293    0.14376    0.62017    1.000
    N5263    N        0.93172    0.21995    0.56449    1.000
    N5264    N        0.92034    0.25701    0.51263    1.000
    N5265    N        0.93068    0.12559    0.63250    1.000
    Si5266   Si       0.91086    0.02633    0.62572    1.000
    N5267    N        0.92557    0.03574    0.70974    1.000
    N5268    N        0.89086    0.10455    0.68486    1.000
    Si5269   Si       0.88578    0.02025    0.69288    1.000
    N5270    N        0.87644    0.02039    0.65220    1.000
    Si5271   Si       0.92632    0.09387    0.66284    1.000
    N5272    N        0.89112    0.22898    0.62096    1.000
    Si5273   Si       0.89003    0.14827    0.69041    1.000
    N5274    N        0.91634    0.22853    0.68711    1.000
    N5275    N        0.88071    0.25527    0.74300    1.000
    N5276    N        0.88318    0.16969    0.65468    1.000
    N5277    N        0.92461    0.15918    0.71195    1.000
    Si5278   Si       0.88504    0.21317    0.65925    1.000
    Si5279   Si       0.89454    0.03413    0.80481    1.000
    Si5280   Si       0.90939    0.10873    0.78597    1.000
    N5281    N        0.88502    0.07511    0.79484    1.000
    N5282    N        0.92520    0.02230    0.77492    1.000
    Si5283   Si       0.92350    0.08002    0.84866    1.000
    N5284    N        0.92458    0.03423    0.83780    1.000
    N5285    N        0.92855    0.11624    0.82643    1.000
    N5286    N        0.88598    0.08337    0.87090    1.000
    Si5287   Si       0.90413    0.23762    0.77358    1.000
    Si5288   Si       0.89179    0.17522    0.81392    1.000
    N5289    N        0.88411    0.14491    0.78208    1.000
    N5290    N        0.87628    0.21496    0.79939    1.000
    Si5291   Si       0.88196    0.10301    0.90900    1.000
    Si5292   Si       0.89356    0.07332    0.97818    1.000
    N5293    N        0.90574    0.08095    0.93728    1.000
    Si5294   Si       0.92021    0.16550    0.93717    1.000
    N5295    N        0.92677    0.20771    0.92591    1.000
    N5296    N        0.88857    0.14574    0.91862    1.000
    Si5297   Si       0.90231    0.24162    0.93461    1.000
    N5298    N        0.90659    0.25636    0.97686    1.000
    Si5299   Si       0.90574    0.30192    0.04976    1.000
    N5300    N        0.91604    0.33124    0.08140    1.000
    Si5301   Si       0.88198    0.35596    0.08832    1.000
    N5302    N        0.92192    0.27278    0.07655    1.000
    N5303    N        0.89552    0.38395    0.11883    1.000
    N5304    N        0.93130    0.37586    0.02163    1.000
    Si5305   Si       0.91111    0.40846    0.04617    1.000
    Si5306   Si       0.88340    0.44935    0.00766    1.000
    N5307    N        0.88566    0.44576    0.05225    1.000
    N5308    N        0.92493    0.43619    0.00443    1.000
    N5309    N        0.87037    0.48864    0.11180    1.000
    N5310    N        0.87463    0.38164    0.05275    1.000
    N5311    N        0.90688    0.32702    0.21085    1.000
    Si5312   Si       0.88450    0.36378    0.22634    1.000
    Si5313   Si       0.87454    0.36796    0.15452    1.000
    N5314    N        0.88966    0.38762    0.18927    1.000
    Si5315   Si       0.89848    0.42935    0.17941    1.000
    N5316    N        0.92684    0.43560    0.14549    1.000
    N5317    N        0.91854    0.44742    0.21406    1.000
    Si5318   Si       0.88759    0.33935    0.29083    1.000
    N5319    N        0.88977    0.36314    0.32880    1.000
    Si5320   Si       0.87984    0.26728    0.29393    1.000
    N5321    N        0.92079    0.26494    0.30666    1.000
    N5322    N        0.92763    0.33062    0.27884    1.000
    Si5323   Si       0.91050    0.43768    0.25509    1.000
    N5324    N        0.90469    0.43390    0.32918    1.000
    Si5325   Si       0.90069    0.47606    0.34433    1.000
    N5326    N        0.90839    0.39256    0.25512    1.000
    N5327    N        0.87794    0.46477    0.26703    1.000
    Si5328   Si       0.89374    0.50761    0.27111    1.000
    Si5329   Si       0.87330    0.40512    0.33190    1.000
    N5330    N        0.89897    0.50824    0.31355    1.000
    N5331    N        0.92700    0.26721    0.44315    1.000
    Si5332   Si       0.90108    0.38937    0.48130    1.000
    N5333    N        0.93110    0.48624    0.37357    1.000
    N5334    N        0.91624    0.48621    0.44534    1.000
    Si5335   Si       0.91823    0.46414    0.48002    1.000
    N5336    N        0.88970    0.43094    0.47538    1.000
    N5337    N        0.90580    0.31787    0.53836    1.000
    Si5338   Si       0.91273    0.35888    0.55102    1.000
    N5339    N        0.90059    0.30359    0.61422    1.000
    N5340    N        0.87583    0.37725    0.56586    1.000
    N5341    N        0.87411    0.42823    0.61492    1.000
    Si5342   Si       0.89187    0.44576    0.57881    1.000
    N5343    N        0.91050    0.48725    0.58820    1.000
    N5344    N        0.90835    0.49369    0.51096    1.000
    N5345    N        0.92848    0.43555    0.55766    1.000
    Si5346   Si       0.92063    0.33878    0.62662    1.000
    N5347    N        0.89985    0.37431    0.63832    1.000
    N5348    N        0.90402    0.34899    0.70986    1.000
    Si5349   Si       0.90300    0.26422    0.70688    1.000
    Si5350   Si       0.90442    0.41615    0.64839    1.000
    N5351    N        0.90688    0.45771    0.73977    1.000
    Si5352   Si       0.89246    0.46254    0.69843    1.000
    Si5353   Si       0.90544    0.39307    0.71669    1.000
    N5354    N        0.88879    0.42080    0.68672    1.000
    N5355    N        0.90677    0.33187    0.79346    1.000
    Si5356   Si       0.91611    0.29509    0.81559    1.000
    Si5357   Si       0.91866    0.37379    0.79079    1.000
    N5358    N        0.93033    0.30618    0.85373    1.000
    N5359    N        0.87501    0.28191    0.81043    1.000
    N5360    N        0.91910    0.38620    0.83271    1.000
    N5361    N        0.89708    0.39577    0.76057    1.000
    N5362    N        0.89562    0.44491    0.80893    1.000
    Si5363   Si       0.90521    0.48666    0.81999    1.000
    Si5364   Si       0.88498    0.43554    0.76840    1.000
    Si5365   Si       0.92466    0.43058    0.83958    1.000
    N5366    N        0.92348    0.50345    0.78640    1.000
    N5367    N        0.87390    0.50332    0.84554    1.000
    Si5368   Si       0.90949    0.38118    0.87616    1.000
    N5369    N        0.91148    0.34613    0.90657    1.000
    Si5370   Si       0.90554    0.30611    0.88927    1.000
    Si5371   Si       0.90227    0.36261    0.94487    1.000
    N5372    N        0.92326    0.27545    0.91421    1.000
    N5373    N        0.91195    0.40405    0.94522    1.000
    N5374    N        0.90017    0.42666    0.87845    1.000
    N5375    N        0.91427    0.47607    0.93255    1.000
    Si5376   Si       0.89692    0.43719    0.92161    1.000
    N5377    N        0.90116    0.58256    0.03728    1.000
    Si5378   Si       0.89657    0.51987    0.09332    1.000
    Si5379   Si       0.92019    0.62106    0.03415    1.000
    N5380    N        0.90385    0.51701    0.04925    1.000
    Si5381   Si       0.93144    0.55008    0.03866    1.000
    N5382    N        0.89919    0.65019    0.05757    1.000
    Si5383   Si       0.91152    0.66169    0.09868    1.000
    Si5384   Si       0.91504    0.73200    0.06888    1.000
    N5385    N        0.87742    0.72848    0.04340    1.000
    N5386    N        0.92534    0.70456    0.09938    1.000
    Si5387   Si       0.86726    0.74297    0.00277    1.000
    N5388    N        0.89006    0.58079    0.21817    1.000
    Si5389   Si       0.90482    0.59884    0.18252    1.000
    N5390    N        0.88001    0.52738    0.16193    1.000
    Si5391   Si       0.92416    0.53261    0.15964    1.000
    N5392    N        0.92823    0.51263    0.24368    1.000
    N5393    N        0.87410    0.66099    0.11952    1.000
    N5394    N        0.91880    0.64014    0.18661    1.000
    N5395    N        0.89739    0.70267    0.16685    1.000
    N5396    N        0.92485    0.69847    0.23046    1.000
    Si5397   Si       0.89992    0.67745    0.20208    1.000
    N5398    N        0.89918    0.58084    0.33197    1.000
    N5399    N        0.90144    0.62904    0.26827    1.000
    Si5400   Si       0.90743    0.58570    0.25765    1.000
    Si5401   Si       0.88023    0.54860    0.31464    1.000
    N5402    N        0.87612    0.54927    0.27199    1.000
    Si5403   Si       0.87121    0.60649    0.35422    1.000
    N5404    N        0.89348    0.64525    0.35377    1.000
    Si5405   Si       0.91375    0.71235    0.27003    1.000
    Si5406   Si       0.90839    0.69133    0.34367    1.000
    N5407    N        0.92204    0.68489    0.30260    1.000
    N5408    N        0.87595    0.72917    0.27943    1.000
    N5409    N        0.92598    0.74021    0.34473    1.000
    Si5410   Si       0.90345    0.61569    0.41751    1.000
    N5411    N        0.90053    0.58779    0.45048    1.000
    N5412    N        0.88869    0.53448    0.39740    1.000
    Si5413   Si       0.92113    0.50863    0.40941    1.000
    Si5414   Si       0.90669    0.58693    0.49393    1.000
    Si5415   Si       0.87578    0.56216    0.42486    1.000
    N5416    N        0.87953    0.75357    0.46708    1.000
    N5417    N        0.90820    0.65918    0.42545    1.000
    Si5418   Si       0.88334    0.74358    0.42604    1.000
    N5419    N        0.92661    0.73418    0.41538    1.000
    Si5420   Si       0.87481    0.67596    0.44612    1.000
    N5421    N        0.88924    0.68829    0.48571    1.000
    N5422    N        0.91024    0.56434    0.57521    1.000
    Si5423   Si       0.89697    0.52893    0.59740    1.000
    N5424    N        0.91180    0.62717    0.51541    1.000
    N5425    N        0.87313    0.56546    0.51356    1.000
    N5426    N        0.89312    0.69116    0.55327    1.000
    Si5427   Si       0.88591    0.66216    0.51983    1.000
    N5428    N        0.92040    0.74329    0.52109    1.000
    Si5429   Si       0.88419    0.72792    0.50243    1.000
    Si5430   Si       0.93079    0.71349    0.54997    1.000
    N5431    N        0.90803    0.60315    0.62736    1.000
    N5432    N        0.91052    0.53029    0.72818    1.000
    N5433    N        0.91306    0.53823    0.63739    1.000
    Si5434   Si       0.88618    0.57011    0.64849    1.000
    N5435    N        0.87162    0.56986    0.68831    1.000
    N5436    N        0.91648    0.63748    0.71588    1.000
    Si5437   Si       0.87943    0.63808    0.63173    1.000
    N5438    N        0.90299    0.66300    0.65658    1.000
    Si5439   Si       0.89181    0.70322    0.66651    1.000
    Si5440   Si       0.87922    0.65945    0.72584    1.000
    N5441    N        0.92670    0.73294    0.67197    1.000
    N5442    N        0.86748    0.69548    0.70306    1.000
    N5443    N        0.88707    0.61542    0.82655    1.000
    N5444    N        0.91241    0.55547    0.82790    1.000
    Si5445   Si       0.88868    0.58074    0.80187    1.000
    N5446    N        0.90921    0.58310    0.76622    1.000
    Si5447   Si       0.88868    0.53953    0.86301    1.000
    Si5448   Si       0.92475    0.63328    0.84198    1.000
    N5449    N        0.89068    0.67277    0.76714    1.000
    N5450    N        0.91867    0.52586    0.88944    1.000
    Si5451   Si       0.90919    0.62073    0.95840    1.000
    Si5452   Si       0.90693    0.51937    0.93086    1.000
    N5453    N        0.92612    0.62747    0.88470    1.000
    N5454    N        0.86603    0.70823    0.97606    1.000
    N5455    N        0.88953    0.69465    0.87639    1.000
    N5456    N        0.93033    0.63175    0.99487    1.000
    N5457    N        0.90259    0.65995    0.94071    1.000
    Si5458   Si       0.89701    0.65634    0.89802    1.000
    Si5459   Si       0.91855    0.72486    0.88312    1.000
    Si5460   Si       0.90693    0.70131    0.95748    1.000
    N5461    N        0.92872    0.72550    0.92551    1.000
    N5462    N        0.89379    0.81908    0.04271    1.000
    N5463    N        0.90597    0.77165    0.09137    1.000
    Si5464   Si       0.91719    0.84597    0.01778    1.000
    Si5465   Si       0.92468    0.79205    0.05827    1.000
    Si5466   Si       0.89821    0.89539    0.06761    1.000
    N5467    N        0.89203    0.92700    0.03834    1.000
    N5468    N        0.92004    0.89343    0.10651    1.000
    N5469    N        0.90755    0.00664    0.10177    1.000
    N5470    N        0.92141    0.83059    0.12452    1.000
    N5471    N        0.89918    0.77587    0.15586    1.000
    Si5472   Si       0.88094    0.86551    0.20524    1.000
    Si5473   Si       0.90600    0.86872    0.14221    1.000
    N5474    N        0.90708    0.83210    0.20086    1.000
    N5475    N        0.89878    0.77280    0.23184    1.000
    Si5476   Si       0.88988    0.79300    0.19355    1.000
    Si5477   Si       0.93139    0.78690    0.12563    1.000
    N5478    N        0.89589    0.90482    0.21883    1.000
    N5479    N        0.91479    0.95487    0.14631    1.000
    Si5480   Si       0.88616    0.97691    0.12471    1.000
    N5481    N        0.90205    0.85734    0.33801    1.000
    N5482    N        0.88415    0.80274    0.29547    1.000
    Si5483   Si       0.86927    0.83649    0.31824    1.000
    Si5484   Si       0.87363    0.77008    0.26742    1.000
    Si5485   Si       0.89636    0.89762    0.35382    1.000
    N5486    N        0.90307    0.96953    0.28498    1.000
    Si5487   Si       0.87282    0.98807    0.26006    1.000
    N5488    N        0.90740    0.86765    0.45749    1.000
    N5489    N        0.88029    0.77467    0.39773    1.000
    Si5490   Si       0.88275    0.87800    0.42467    1.000
    Si5491   Si       0.91936    0.76374    0.38020    1.000
    Si5492   Si       0.89055    0.85032    0.49244    1.000
    N5493    N        0.89335    0.80887    0.49927    1.000
    N5494    N        0.90549    0.90043    0.39542    1.000
    Si5495   Si       0.92041    0.00113    0.44619    1.000
    N5496    N        0.91018    0.95989    0.43002    1.000
    N5497    N        0.92628    0.99609    0.48990    1.000
    N5498    N        0.90203    0.86767    0.53353    1.000
    N5499    N        0.91719    0.80016    0.56303    1.000
    Si5500   Si       0.89997    0.83933    0.56851    1.000
    Si5501   Si       0.91182    0.77186    0.59403    1.000
    N5502    N        0.91924    0.85890    0.60130    1.000
    Si5503   Si       0.92542    0.78649    0.52246    1.000
    N5504    N        0.90469    0.92475    0.58899    1.000
    N5505    N        0.88567    0.98314    0.55260    1.000
    Si5506   Si       0.89604    0.97309    0.50863    1.000
    Si5507   Si       0.91954    0.99561    0.57573    1.000
    N5508    N        0.90914    0.93266    0.51914    1.000
    Si5509   Si       0.88181    0.93894    0.55497    1.000
    N5510    N        0.92317    0.98434    0.61641    1.000
    Si5511   Si       0.91341    0.77263    0.66819    1.000
    Si5512   Si       0.91749    0.83556    0.63918    1.000
    N5513    N        0.88016    0.84484    0.65758    1.000
    N5514    N        0.92370    0.79255    0.63148    1.000
    Si5515   Si       0.91631    0.81092    0.74202    1.000
    N5516    N        0.92674    0.79648    0.70131    1.000
    N5517    N        0.88943    0.98482    0.71801    1.000
    Si5518   Si       0.92537    0.00072    0.73668    1.000
    N5519    N        0.90035    0.91615    0.65833    1.000
    Si5520   Si       0.89811    0.94927    0.62753    1.000
    N5521    N        0.90458    0.85042    0.81264    1.000
    Si5522   Si       0.87615    0.78226    0.85685    1.000
    N5523    N        0.91435    0.76550    0.86538    1.000
    N5524    N        0.92624    0.79392    0.78053    1.000
    Si5525   Si       0.87738    0.88186    0.82052    1.000
    Si5526   Si       0.88023    0.82416    0.79043    1.000
    N5527    N        0.87447    0.81261    0.74832    1.000
    Si5528   Si       0.88408    0.95753    0.81297    1.000
    N5529    N        0.92560    0.96441    0.82391    1.000
    N5530    N        0.87607    0.91701    0.79900    1.000
    Si5531   Si       0.93129    0.99412    0.85819    1.000
    Si5532   Si       0.89053    0.82844    0.92207    1.000
    N5533    N        0.90437    0.86602    0.90705    1.000
    N5534    N        0.89568    0.76829    0.98547    1.000
    N5535    N        0.92656    0.80957    0.93458    1.000
    N5536    N        0.89315    0.87256    0.99270    1.000
    Si5537   Si       0.92787    0.79224    0.97340    1.000
    N5538    N        0.90958    0.93940    0.96842    1.000
    N5539    N        0.87539    0.93151    0.91101    1.000
    N5540    N        0.91448    0.97736    0.89455    1.000
    Si5541   Si       0.91744    0.94655    0.92574    1.000
    Si5542   Si       0.88623    0.91464    0.99582    1.000
    N5543    N        0.95404    0.03737    0.06460    1.000
    N5544    N        0.99124    0.09608    0.08673    1.000
    Si5545   Si       0.93801    0.20265    0.03730    1.000
    N5546    N        0.96904    0.17300    0.02993    1.000
    N5547    N        0.95997    0.23852    0.02462    1.000
    Si5548   Si       0.96107    0.19062    0.11295    1.000
    N5549    N        0.94370    0.15009    0.11326    1.000
    N5550    N        0.94000    0.21097    0.08131    1.000
    Si5551   Si       0.96328    0.08331    0.19267    1.000
    N5552    N        0.95176    0.09164    0.15143    1.000
    N5553    N        0.98322    0.11664    0.20869    1.000
    N5554    N        0.93515    0.07383    0.22513    1.000
    N5555    N        0.94743    0.17826    0.19097    1.000
    Si5556   Si       0.96831    0.24862    0.22210    1.000
    N5557    N        0.93467    0.25097    0.19473    1.000
    N5558    N        0.96796    0.22047    0.14357    1.000
    Si5559   Si       0.93561    0.24997    0.15196    1.000
    Si5560   Si       0.98219    0.19894    0.17954    1.000
    Si5561   Si       0.95550    0.05386    0.33787    1.000
    Si5562   Si       0.96382    0.11058    0.31620    1.000
    N5563    N        0.95789    0.11743    0.27368    1.000
    N5564    N        0.97055    0.02836    0.36907    1.000
    N5565    N        0.93114    0.09180    0.33910    1.000
    N5566    N        0.98070    0.22159    0.31187    1.000
    Si5567   Si       0.96367    0.18638    0.33304    1.000
    N5568    N        0.97401    0.14375    0.34076    1.000
    Si5569   Si       0.93889    0.22890    0.29727    1.000
    N5570    N        0.94015    0.23024    0.25324    1.000
    N5571    N        0.96502    0.07441    0.42160    1.000
    Si5572   Si       0.98050    0.03779    0.40963    1.000
    N5573    N        0.96069    0.00669    0.43330    1.000
    Si5574   Si       0.96409    0.15366    0.38316    1.000
    Si5575   Si       0.98245    0.17110    0.45383    1.000
    N5576    N        0.98284    0.14301    0.42021    1.000
    N5577    N        0.97559    0.19612    0.37450    1.000
    N5578    N        0.94513    0.16970    0.47465    1.000
    N5579    N        0.96469    0.07669    0.58045    1.000
    N5580    N        0.94522    0.06074    0.52129    1.000
    Si5581   Si       0.95523    0.02104    0.51053    1.000
    N5582    N        0.95764    0.12643    0.53217    1.000
    Si5583   Si       0.98417    0.11416    0.56453    1.000
    Si5584   Si       0.95647    0.09801    0.49980    1.000
    Si5585   Si       0.97566    0.06120    0.62013    1.000
    Si5586   Si       0.97059    0.23463    0.55399    1.000
    N5587    N        0.98706    0.14989    0.58977    1.000
    N5588    N        0.95810    0.09827    0.69324    1.000
    Si5589   Si       0.94914    0.06769    0.72822    1.000
    N5590    N        0.93620    0.05777    0.64089    1.000
    Si5591   Si       0.95157    0.12853    0.72478    1.000
    Si5592   Si       0.95321    0.22632    0.66037    1.000
    N5593    N        0.94646    0.19359    0.63147    1.000
    N5594    N        0.99073    0.14772    0.72632    1.000
    Si5595   Si       0.93931    0.20077    0.71674    1.000
    Si5596   Si       0.96343    0.15302    0.62577    1.000
    N5597    N        0.97547    0.20615    0.69362    1.000
    Si5598   Si       0.95661    0.03439    0.80471    1.000
    N5599    N        0.98005    0.06985    0.81778    1.000
    N5600    N        0.98324    0.05131    0.75221    1.000
    N5601    N        0.93674    0.10051    0.75482    1.000
    Si5602   Si       0.96045    0.14757    0.83039    1.000
    Si5603   Si       0.96017    0.20000    0.79369    1.000
    N5604    N        0.97892    0.15946    0.79297    1.000
    N5605    N        0.93777    0.21148    0.75751    1.000
    N5606    N        0.93254    0.18388    0.82557    1.000
    N5607    N        0.95386    0.07696    0.87917    1.000
    Si5608   Si       0.94504    0.06825    0.92086    1.000
    Si5609   Si       0.95778    0.03015    0.98017    1.000
    N5610    N        0.95301    0.02756    0.93716    1.000
    N5611    N        0.98449    0.08057    0.93770    1.000
    N5612    N        0.98718    0.24298    0.90932    1.000
    N5613    N        0.95917    0.14897    0.92501    1.000
    N5614    N        0.98528    0.19765    0.96294    1.000
    Si5615   Si       0.97238    0.16409    0.98681    1.000
    Si5616   Si       0.97309    0.20040    0.92074    1.000
    N5617    N        0.92826    0.15784    0.98181    1.000
    Si5618   Si       0.94994    0.30482    0.09440    1.000
    N5619    N        0.98292    0.32712    0.07785    1.000
    Si5620   Si       0.95171    0.34301    0.00472    1.000
    N5621    N        0.93581    0.30448    0.01746    1.000
    Si5622   Si       0.93494    0.40150    0.11939    1.000
    N5623    N        0.94169    0.41675    0.07729    1.000
    Si5624   Si       0.98287    0.43424    0.07834    1.000
    Si5625   Si       0.96683    0.44576    0.00301    1.000
    N5626    N        0.98669    0.46036    0.11157    1.000
    N5627    N        0.98466    0.45796    0.04028    1.000
    N5628    N        0.95924    0.28246    0.13061    1.000
    Si5629   Si       0.94195    0.32089    0.23454    1.000
    N5630    N        0.97223    0.28865    0.23462    1.000
    N5631    N        0.96797    0.35731    0.24104    1.000
    N5632    N        0.97179    0.38330    0.13084    1.000
    N5633    N        0.98252    0.47308    0.23030    1.000
    Si5634   Si       0.96012    0.46274    0.14907    1.000
    Si5635   Si       0.94400    0.48198    0.21329    1.000
    N5636    N        0.94573    0.49743    0.17421    1.000
    N5637    N        0.98627    0.44081    0.17402    1.000
    Si5638   Si       0.94436    0.30266    0.30893    1.000
    N5639    N        0.94203    0.32082    0.34912    1.000
    Si5640   Si       0.94290    0.37296    0.27089    1.000
    Si5641   Si       0.93227    0.36364    0.34535    1.000
    N5642    N        0.95173    0.38258    0.31209    1.000
    Si5643   Si       0.98406    0.46918    0.27339    1.000
    Si5644   Si       0.94380    0.42388    0.31489    1.000
    N5645    N        0.97113    0.44363    0.34044    1.000
    N5646    N        0.94654    0.44675    0.27807    1.000
    Si5647   Si       0.97127    0.47458    0.37023    1.000
    Si5648   Si       0.98295    0.41597    0.37381    1.000
    N5649    N        0.97797    0.50778    0.29367    1.000
    N5650    N        0.93446    0.37773    0.45237    1.000
    Si5651   Si       0.96173    0.29208    0.45170    1.000
    N5652    N        0.97032    0.26453    0.38808    1.000
    N5653    N        0.95069    0.31532    0.48715    1.000
    Si5654   Si       0.95485    0.35822    0.48503    1.000
    N5655    N        0.96053    0.32487    0.41984    1.000
    Si5656   Si       0.96962    0.30619    0.38072    1.000
    Si5657   Si       0.96053    0.37060    0.41790    1.000
    N5658    N        0.94757    0.38708    0.38039    1.000
    N5659    N        0.98226    0.44871    0.40405    1.000
    N5660    N        0.97220    0.50584    0.48109    1.000
    N5661    N        0.95566    0.44403    0.49354    1.000
    N5662    N        0.97162    0.27695    0.55202    1.000
    Si5663   Si       0.94065    0.29524    0.52433    1.000
    N5664    N        0.93612    0.35653    0.58776    1.000
    Si5665   Si       0.98042    0.35540    0.58508    1.000
    N5666    N        0.93047    0.37828    0.51526    1.000
    Si5667   Si       0.94636    0.47231    0.56959    1.000
    Si5668   Si       0.95120    0.41555    0.52650    1.000
    N5669    N        0.96259    0.50417    0.54604    1.000
    N5670    N        0.98490    0.45928    0.58556    1.000
    N5671    N        0.97533    0.25854    0.64283    1.000
    Si5672   Si       0.98221    0.30238    0.64402    1.000
    Si5673   Si       0.94126    0.33001    0.70071    1.000
    N5674    N        0.94891    0.32494    0.65862    1.000
    N5675    N        0.93989    0.28794    0.71757    1.000
    Si5676   Si       0.98119    0.29310    0.73708    1.000
    N5677    N        0.98505    0.33206    0.71510    1.000
    N5678    N        0.93032    0.48078    0.68399    1.000
    N5679    N        0.97528    0.49982    0.63794    1.000
    Si5680   Si       0.96094    0.46424    0.65899    1.000
    Si5681   Si       0.97318    0.40546    0.67475    1.000
    N5682    N        0.96803    0.50217    0.73611    1.000
    N5683    N        0.94508    0.42630    0.64755    1.000
    N5684    N        0.94769    0.39821    0.70818    1.000
    N5685    N        0.95870    0.37161    0.77494    1.000
    Si5686   Si       0.97222    0.31830    0.85820    1.000
    Si5687   Si       0.97712    0.26813    0.80605    1.000
    N5688    N        0.98185    0.35077    0.83292    1.000
    N5689    N        0.98264    0.30191    0.77817    1.000
    Si5690   Si       0.98952    0.34466    0.78945    1.000
    N5691    N        0.93444    0.25982    0.80057    1.000
    Si5692   Si       0.98196    0.38877    0.85418    1.000
    N5693    N        0.97068    0.42379    0.83267    1.000
    N5694    N        0.96680    0.44174    0.76688    1.000
    Si5695   Si       0.94066    0.47482    0.75767    1.000
    N5696    N        0.93530    0.47312    0.84908    1.000
    Si5697   Si       0.96850    0.40368    0.74665    1.000
    N5698    N        0.94356    0.35540    0.96151    1.000
    N5699    N        0.97305    0.27583    0.96588    1.000
    N5700    N        0.97719    0.31698    0.90392    1.000
    Si5701   Si       0.96096    0.35493    0.91916    1.000
    Si5702   Si       0.96606    0.27760    0.92298    1.000
    N5703    N        0.95538    0.38405    0.88833    1.000
    Si5704   Si       0.94495    0.26795    0.99561    1.000
    Si5705   Si       0.93670    0.39723    0.98313    1.000
    N5706    N        0.98029    0.40762    0.98858    1.000
    N5707    N        0.98017    0.49309    0.90681    1.000
    Si5708   Si       0.95673    0.48776    0.94233    1.000
    N5709    N        0.98257    0.47338    0.97272    1.000
    Si5710   Si       0.95329    0.50452    0.87390    1.000
    N5711    N        0.96758    0.54202    0.06127    1.000
    Si5712   Si       0.97195    0.61729    0.09690    1.000
    Si5713   Si       0.97361    0.54044    0.10289    1.000
    N5714    N        0.95554    0.61262    0.05770    1.000
    N5715    N        0.95874    0.55957    0.00396    1.000
    N5716    N        0.97685    0.58107    0.11815    1.000
    N5717    N        0.93225    0.52803    0.11688    1.000
    Si5718   Si       0.96021    0.73621    0.00626    1.000
    N5719    N        0.94184    0.75239    0.04173    1.000
    N5720    N        0.94398    0.64145    0.12158    1.000
    Si5721   Si       0.97782    0.58836    0.16315    1.000
    N5722    N        0.93905    0.57368    0.17284    1.000
    N5723    N        0.99081    0.63154    0.16904    1.000
    Si5724   Si       0.95332    0.65258    0.16318    1.000
    Si5725   Si       0.96215    0.70986    0.21066    1.000
    N5726    N        0.95830    0.75241    0.13490    1.000
    Si5727   Si       0.93301    0.71897    0.14283    1.000
    N5728    N        0.95879    0.69355    0.16982    1.000
    N5729    N        0.96253    0.75359    0.21239    1.000
    N5730    N        0.96994    0.55836    0.34477    1.000
    Si5731   Si       0.96144    0.53454    0.26180    1.000
    N5732    N        0.95062    0.62407    0.32135    1.000
    N5733    N        0.94097    0.56904    0.27869    1.000
    Si5734   Si       0.94250    0.58172    0.31973    1.000
    Si5735   Si       0.93678    0.63659    0.36130    1.000
    N5736    N        0.96810    0.64156    0.25696    1.000
    N5737    N        0.94261    0.74422    0.27804    1.000
    Si5738   Si       0.95888    0.74626    0.31762    1.000
    Si5739   Si       0.98384    0.70161    0.36455    1.000
    Si5740   Si       0.93767    0.64667    0.28677    1.000
    N5741    N        0.94393    0.68002    0.36899    1.000
    N5742    N        0.93585    0.60359    0.38891    1.000
    Si5743   Si       0.98515    0.52844    0.44635    1.000
    N5744    N        0.95689    0.53395    0.41214    1.000
    Si5745   Si       0.96437    0.57017    0.38754    1.000
    N5746    N        0.99032    0.73924    0.38833    1.000
    Si5747   Si       0.96931    0.73800    0.42594    1.000
    N5748    N        0.96983    0.69318    0.43240    1.000
    Si5749   Si       0.93198    0.69084    0.41051    1.000
    N5750    N        0.95633    0.61898    0.57487    1.000
    Si5751   Si       0.94217    0.51866    0.51132    1.000
    N5752    N        0.97196    0.56647    0.61224    1.000
    Si5753   Si       0.93700    0.58943    0.59835    1.000
    N5754    N        0.94282    0.56374    0.50756    1.000
    Si5755   Si       0.98242    0.57601    0.49947    1.000
    N5756    N        0.98722    0.61646    0.51967    1.000
    Si5757   Si       0.94901    0.63821    0.53589    1.000
    N5758    N        0.95897    0.68025    0.53809    1.000
    Si5759   Si       0.97851    0.74942    0.59602    1.000
    N5760    N        0.93700    0.73724    0.58650    1.000
    N5761    N        0.97096    0.58796    0.73398    1.000
    Si5762   Si       0.95554    0.53737    0.63990    1.000
    N5763    N        0.96455    0.54784    0.68061    1.000
    N5764    N        0.96982    0.61965    0.67550    1.000
    Si5765   Si       0.94456    0.51693    0.70214    1.000
    Si5766   Si       0.98436    0.58385    0.69383    1.000
    Si5767   Si       0.93598    0.61134    0.74838    1.000
    Si5768   Si       0.97012    0.72366    0.67216    1.000
    N5769    N        0.96775    0.68015    0.66808    1.000
    Si5770   Si       0.93701    0.65006    0.67885    1.000
    N5771    N        0.98952    0.73713    0.63508    1.000
    N5772    N        0.98905    0.74180    0.70733    1.000
    N5773    N        0.96809    0.55318    0.78729    1.000
    Si5774   Si       0.95488    0.56557    0.82824    1.000
    N5775    N        0.95955    0.60879    0.82869    1.000
    N5776    N        0.97649    0.53410    0.85139    1.000
    Si5777   Si       0.98522    0.63213    0.80299    1.000
    Si5778   Si       0.92941    0.54204    0.76622    1.000
    Si5779   Si       0.93091    0.67870    0.78126    1.000
    N5780    N        0.95722    0.64249    0.77096    1.000
    Si5781   Si       0.97038    0.68662    0.84631    1.000
    N5782    N        0.94796    0.71239    0.76241    1.000
    N5783    N        0.95843    0.72298    0.86317    1.000
    N5784    N        0.93662    0.67133    0.82403    1.000
    Si5785   Si       0.98302    0.73331    0.75263    1.000
    N5786    N        0.94366    0.59755    0.94162    1.000
    N5787    N        0.94475    0.52837    0.95056    1.000
    Si5788   Si       0.96378    0.56356    0.95999    1.000
    Si5789   Si       0.96177    0.62523    0.91197    1.000
    N5790    N        0.97812    0.66325    0.88258    1.000
    N5791    N        0.93937    0.70223    0.98844    1.000
    Si5792   Si       0.95949    0.66213    0.98325    1.000
    N5793    N        0.97687    0.65479    0.94385    1.000
    Si5794   Si       0.96647    0.74524    0.93323    1.000
    N5795    N        0.96030    0.81095    0.07687    1.000
    Si5796   Si       0.94585    0.85177    0.09110    1.000
    N5797    N        0.94759    0.82221    0.99909    1.000
    N5798    N        0.98153    0.85675    0.11661    1.000
    N5799    N        0.93348    0.86982    0.05134    1.000
    Si5800   Si       0.97442    0.00553    0.04198    1.000
    Si5801   Si       0.96662    0.89448    0.03698    1.000
    N5802    N        0.97107    0.97827    0.07615    1.000
    N5803    N        0.96816    0.92603    0.00831    1.000
    N5804    N        0.95250    0.99443    0.00462    1.000
    Si5805   Si       0.94926    0.00918    0.10012    1.000
    Si5806   Si       0.94870    0.83727    0.21313    1.000
    N5807    N        0.97362    0.81850    0.18385    1.000
    N5808    N        0.95924    0.87877    0.22818    1.000
    Si5809   Si       0.94134    0.77078    0.24582    1.000
    Si5810   Si       0.94094    0.98231    0.17203    1.000
    N5811    N        0.96028    0.95130    0.20074    1.000
    N5812    N        0.97972    0.94052    0.13307    1.000
    Si5813   Si       0.93899    0.91127    0.20487    1.000
    Si5814   Si       0.97548    0.96629    0.24416    1.000
    Si5815   Si       0.93881    0.92166    0.13414    1.000
    N5816    N        0.93494    0.89294    0.16639    1.000
    N5817    N        0.96327    0.00704    0.14157    1.000
    N5818    N        0.96897    0.86002    0.29678    1.000
    Si5819   Si       0.94588    0.86836    0.33248    1.000
    Si5820   Si       0.98058    0.81925    0.28418    1.000
    N5821    N        0.97865    0.78571    0.31325    1.000
    N5822    N        0.95866    0.81118    0.24801    1.000
    N5823    N        0.97144    0.86287    0.37033    1.000
    Si5824   Si       0.97979    0.88802    0.26444    1.000
    N5825    N        0.96344    0.97621    0.32313    1.000
    Si5826   Si       0.96949    0.93446    0.31519    1.000
    N5827    N        0.97296    0.93235    0.27169    1.000
    Si5828   Si       0.98135    0.98513    0.36299    1.000
    Si5829   Si       0.93493    0.99509    0.29684    1.000
    N5830    N        0.95217    0.00271    0.25590    1.000
    N5831    N        0.93468    0.91047    0.33198    1.000
    N5832    N        0.96676    0.83433    0.44134    1.000
    Si5833   Si       0.97260    0.82820    0.39772    1.000
    N5834    N        0.94345    0.79799    0.38708    1.000
    Si5835   Si       0.98263    0.80421    0.46891    1.000
    Si5836   Si       0.95098    0.87243    0.45723    1.000
    N5837    N        0.98749    0.76226    0.45673    1.000
    Si5838   Si       0.93278    0.93001    0.40768    1.000
    N5839    N        0.96681    0.95348    0.39141    1.000
    N5840    N        0.96077    0.90732    0.43486    1.000
    N5841    N        0.96450    0.80090    0.50711    1.000
    N5842    N        0.98702    0.79106    0.58201    1.000
    N5843    N        0.95961    0.88272    0.49827    1.000
    N5844    N        0.96369    0.90040    0.55958    1.000
    Si5845   Si       0.93639    0.89841    0.59494    1.000
    N5846    N        0.95473    0.00282    0.55120    1.000
    Si5847   Si       0.93213    0.89881    0.52737    1.000
    N5848    N        0.94229    0.84654    0.73638    1.000
    N5849    N        0.94662    0.85486    0.66841    1.000
    Si5850   Si       0.95813    0.82803    0.69818    1.000
    Si5851   Si       0.97711    0.95322    0.70538    1.000
    N5852    N        0.97545    0.96751    0.66641    1.000
    N5853    N        0.95336    0.91458    0.70674    1.000
    Si5854   Si       0.94114    0.89954    0.66707    1.000
    Si5855   Si       0.95871    0.88638    0.73975    1.000
    N5856    N        0.96316    0.90561    0.62989    1.000
    N5857    N        0.96601    0.98368    0.73273    1.000
    N5858    N        0.97541    0.83947    0.80773    1.000
    Si5859   Si       0.96524    0.79537    0.79793    1.000
    Si5860   Si       0.94421    0.86882    0.80796    1.000
    Si5861   Si       0.95701    0.76731    0.86587    1.000
    N5862    N        0.98250    0.78656    0.83864    1.000
    N5863    N        0.98913    0.77028    0.77391    1.000
    N5864    N        0.95103    0.90167    0.78080    1.000
    Si5865   Si       0.95104    0.92854    0.81587    1.000
    N5866    N        0.98581    0.00414    0.79998    1.000
    N5867    N        0.97454    0.99201    0.86794    1.000
    Si5868   Si       0.99263    0.00773    0.75629    1.000
    N5869    N        0.93928    0.89459    0.84322    1.000
    Si5870   Si       0.96459    0.81880    0.91730    1.000
    N5871    N        0.96477    0.84237    0.87995    1.000
    N5872    N        0.97498    0.77684    0.90365    1.000
    Si5873   Si       0.94004    0.87973    0.88665    1.000
    N5874    N        0.96142    0.76377    0.97126    1.000
    Si5875   Si       0.98411    0.93301    0.92339    1.000
    N5876    N        0.94675    0.91623    0.90622    1.000
    Si5877   Si       0.94771    0.95532    0.98495    1.000
    Si5878   Si       0.97202    0.99683    0.91353    1.000
    N5879    N        0.96167    0.96410    0.94174    1.000
