# CIF file generated by openbabel 3.1.1, see https://openbabel.org
data_I
_chemical_name_common '3.01-4.aims'
_cell_length_a 39.8826
_cell_length_b 39.8826
_cell_length_c 39.8826
_cell_angle_alpha 90
_cell_angle_beta 90
_cell_angle_gamma 90
loop_
    _atom_site_label
    _atom_site_type_symbol
    _atom_site_fract_x
    _atom_site_fract_y
    _atom_site_fract_z
    _atom_site_occupancy
    N0       N        0.00838    0.08003    0.00951    1.000
    Si1      Si       0.02849    0.06498    0.10065    1.000
    Si2      Si       0.01796    0.12391    0.01584    1.000
    N3       N        0.99434    0.08200    0.08299    1.000
    N4       N        0.04000    0.13517    0.05225    1.000
    N5       N        0.01786    0.21173    0.06485    1.000
    Si6      Si       0.02132    0.16951    0.07342    1.000
    Si7      Si       0.04212    0.22883    0.03306    1.000
    N8       N        0.01717    0.24372    0.00066    1.000
    N9       N        0.04374    0.16595    0.11117    1.000
    N10      N        0.01359    0.04428    0.13665    1.000
    Si11     Si       0.02344    0.05829    0.17722    1.000
    N12      N        0.02743    0.02602    0.20583    1.000
    N13      N        0.04345    0.09804    0.24100    1.000
    N14      N        0.99406    0.12388    0.14079    1.000
    N15      N        0.99144    0.08209    0.19429    1.000
    Si16     Si       0.99201    0.00629    0.13048    1.000
    N17      N        0.04622    0.24749    0.17069    1.000
    N18      N        0.99913    0.19369    0.15159    1.000
    Si19     Si       0.03307    0.13424    0.22073    1.000
    Si20     Si       0.02382    0.15709    0.14651    1.000
    Si21     Si       0.00875    0.22621    0.18105    1.000
    N22      N        0.01278    0.21005    0.22190    1.000
    N23      N        0.99144    0.14752    0.21287    1.000
    N24      N        0.00421    0.07089    0.29982    1.000
    Si25     Si       0.03937    0.09560    0.28454    1.000
    N26      N        0.02015    0.13074    0.30436    1.000
    N27      N        0.00156    0.01088    0.34290    1.000
    Si28     Si       0.99096    0.02963    0.30583    1.000
    N29      N        0.03818    0.19797    0.29305    1.000
    N30      N        0.02541    0.22908    0.36030    1.000
    Si31     Si       0.01096    0.21636    0.32220    1.000
    Si32     Si       0.04560    0.20585    0.25013    1.000
    Si33     Si       0.01127    0.04879    0.43182    1.000
    N34      N        0.00263    0.09074    0.43176    1.000
    N35      N        0.00604    0.02656    0.46776    1.000
    Si36     Si       0.00876    0.10921    0.39177    1.000
    N37      N        0.04526    0.03588    0.41231    1.000
    N38      N        0.04952    0.09944    0.37888    1.000
    N39      N        0.00335    0.15178    0.39644    1.000
    Si40     Si       0.99222    0.17275    0.43351    1.000
    N41      N        0.02001    0.19530    0.45829    1.000
    Si42     Si       0.04898    0.22435    0.44166    1.000
    N43      N        0.01523    0.09385    0.56678    1.000
    Si44     Si       0.03609    0.11897    0.53311    1.000
    N45      N        0.99961    0.09973    0.50567    1.000
    Si46     Si       0.04306    0.06888    0.59120    1.000
    N47      N        0.01178    0.23485    0.51193    1.000
    N48      N        0.03872    0.15965    0.51635    1.000
    Si49     Si       0.01456    0.19150    0.50121    1.000
    Si50     Si       0.04682    0.25861    0.50548    1.000
    N51      N        0.02319    0.05736    0.62842    1.000
    N52      N        0.03466    0.05390    0.72505    1.000
    Si53     Si       0.01348    0.09243    0.72053    1.000
    Si54     Si       0.02135    0.01303    0.72252    1.000
    Si55     Si       0.04749    0.03053    0.65096    1.000
    Si56     Si       0.99124    0.17800    0.62178    1.000
    N57      N        0.99914    0.15063    0.65506    1.000
    N58      N        0.02667    0.19237    0.70515    1.000
    Si59     Si       0.01817    0.24788    0.64214    1.000
    Si60     Si       0.99454    0.22413    0.70777    1.000
    N61      N        0.02281    0.20557    0.63708    1.000
    Si62     Si       0.03318    0.17704    0.66593    1.000
    Si63     Si       0.00583    0.10219    0.80209    1.000
    Si64     Si       0.01456    0.04865    0.86122    1.000
    N65      N        0.99694    0.10586    0.75775    1.000
    N66      N        0.04325    0.11929    0.81411    1.000
    N67      N        0.99574    0.06667    0.82659    1.000
    Si68     Si       0.00786    0.21330    0.84939    1.000
    N69      N        0.03360    0.17801    0.77664    1.000
    N70      N        0.02229    0.25091    0.86084    1.000
    Si71     Si       0.99397    0.19698    0.77960    1.000
    N72      N        0.99392    0.23061    0.75097    1.000
    N73      N        0.04208    0.18351    0.84257    1.000
    N74      N        0.04009    0.08101    0.87417    1.000
    Si75     Si       0.02649    0.07664    0.91607    1.000
    Si76     Si       0.02646    0.04772    0.98650    1.000
    N77      N        0.99918    0.04272    0.90399    1.000
    N78      N        0.00050    0.10627    0.93492    1.000
    N79      N        0.99716    0.01873    0.96659    1.000
    N80      N        0.04804    0.06164    0.94994    1.000
    Si81     Si       0.01978    0.14853    0.94660    1.000
    N82      N        0.04305    0.13780    0.98382    1.000
    N83      N        0.99972    0.19115    0.88647    1.000
    N84      N        0.02838    0.19114    0.95889    1.000
    Si85     Si       0.04189    0.17959    0.88593    1.000
    Si86     Si       0.00177    0.22570    0.96240    1.000
    Si87     Si       0.00537    0.30259    0.08196    1.000
    N88      N        0.03879    0.32679    0.06609    1.000
    N89      N        0.02025    0.27901    0.11687    1.000
    N90      N        0.01427    0.38889    0.08348    1.000
    N91      N        0.04317    0.45176    0.08562    1.000
    Si92     Si       0.02211    0.42174    0.11113    1.000
    Si93     Si       0.05305    0.49412    0.08182    1.000
    Si94     Si       0.02975    0.32921    0.20135    1.000
    N95      N        0.00179    0.32384    0.16827    1.000
    N96      N        0.00949    0.35673    0.22989    1.000
    N97      N        0.04243    0.41560    0.21033    1.000
    Si98     Si       0.00189    0.39876    0.21854    1.000
    N99      N        0.04718    0.40482    0.14160    1.000
    N100     N        0.99627    0.30412    0.26667    1.000
    N101     N        0.00247    0.36767    0.29805    1.000
    Si102    Si       0.03906    0.29970    0.26531    1.000
    Si103    Si       0.00202    0.38005    0.33998    1.000
    Si104    Si       0.04631    0.37453    0.29730    1.000
    N105     N        0.04474    0.38444    0.33986    1.000
    N106     N        0.03801    0.44878    0.35503    1.000
    Si107    Si       0.99308    0.44710    0.35408    1.000
    N108     N        0.02159    0.47024    0.25091    1.000
    Si109    Si       0.04398    0.50228    0.27102    1.000
    Si110    Si       0.02194    0.26867    0.37880    1.000
    N111     N        0.03422    0.29432    0.48305    1.000
    Si112    Si       0.00881    0.28617    0.44508    1.000
    N113     N        0.99716    0.32362    0.42653    1.000
    N114     N        0.01700    0.38055    0.46600    1.000
    N115     N        0.03007    0.25872    0.42060    1.000
    N116     N        0.03112    0.48747    0.40745    1.000
    Si117    Si       0.99680    0.48981    0.46426    1.000
    Si118    Si       0.01979    0.44624    0.41608    1.000
    N119     N        0.01174    0.44942    0.45834    1.000
    Si120    Si       0.00677    0.41735    0.48595    1.000
    N121     N        0.01894    0.32183    0.59518    1.000
    Si122    Si       0.01343    0.31709    0.51627    1.000
    Si123    Si       0.02316    0.27931    0.58575    1.000
    N124     N        0.04942    0.34136    0.52339    1.000
    N125     N        0.04633    0.38035    0.57775    1.000
    N126     N        0.99057    0.29504    0.54791    1.000
    N127     N        0.02746    0.49530    0.53278    1.000
    Si128    Si       0.01192    0.39678    0.55767    1.000
    N129     N        0.02884    0.41678    0.52345    1.000
    N130     N        0.01316    0.48568    0.60464    1.000
    N131     N        0.99294    0.42317    0.58694    1.000
    N132     N        0.02275    0.32763    0.69589    1.000
    Si133    Si       0.02578    0.32721    0.74106    1.000
    Si134    Si       0.99509    0.29513    0.69638    1.000
    N135     N        0.04536    0.37205    0.64150    1.000
    N136     N        0.99181    0.29970    0.74315    1.000
    N137     N        0.00939    0.25667    0.68479    1.000
    Si138    Si       0.03612    0.41329    0.65643    1.000
    N139     N        0.99764    0.43227    0.65360    1.000
    N140     N        0.04678    0.39936    0.69711    1.000
    Si141    Si       0.02265    0.40286    0.73245    1.000
    Si142    Si       0.01658    0.33632    0.85653    1.000
    N143     N        0.02215    0.36629    0.75754    1.000
    Si144    Si       0.01184    0.37389    0.79935    1.000
    Si145    Si       0.99762    0.26632    0.77456    1.000
    N146     N        0.03773    0.26571    0.79205    1.000
    N147     N        0.99059    0.34147    0.82223    1.000
    N148     N        0.02964    0.44053    0.75677    1.000
    Si149    Si       0.03100    0.47751    0.82963    1.000
    N150     N        0.04207    0.43835    0.84601    1.000
    N151     N        0.04086    0.50630    0.85916    1.000
    Si152    Si       0.01884    0.41570    0.87570    1.000
    N153     N        0.01377    0.26142    0.94033    1.000
    N154     N        0.99981    0.30687    0.88171    1.000
    Si155    Si       0.01856    0.27316    0.90014    1.000
    N156     N        0.02356    0.37176    0.88113    1.000
    Si157    Si       0.01395    0.28341    0.98121    1.000
    Si158    Si       0.02545    0.37810    0.92437    1.000
    N159     N        0.99186    0.37744    0.95087    1.000
    Si160    Si       0.99960    0.44716    0.94079    1.000
    Si161    Si       0.00843    0.39173    0.99091    1.000
    N162     N        0.03092    0.42292    0.91968    1.000
    Si163    Si       0.01943    0.47148    0.99507    1.000
    N164     N        0.99911    0.43299    0.98367    1.000
    N165     N        0.03169    0.47640    0.95181    1.000
    Si166    Si       0.00617    0.60215    0.03299    1.000
    N167     N        0.00560    0.57029    0.10459    1.000
    Si168    Si       0.00412    0.54356    0.06970    1.000
    N169     N        0.03797    0.52233    0.05108    1.000
    N170     N        0.00784    0.62609    0.06923    1.000
    N171     N        0.04486    0.58577    0.02189    1.000
    Si172    Si       0.02435    0.69922    0.00945    1.000
    Si173    Si       0.03267    0.66286    0.07382    1.000
    N174     N        0.01687    0.69710    0.09499    1.000
    N175     N        0.03083    0.74083    0.00702    1.000
    Si176    Si       0.04237    0.71939    0.12219    1.000
    N177     N        0.04843    0.67486    0.03439    1.000
    Si178    Si       0.00034    0.52640    0.12838    1.000
    N179     N        0.02257    0.56406    0.23007    1.000
    Si180    Si       0.02593    0.58565    0.14270    1.000
    N181     N        0.00678    0.55299    0.16446    1.000
    N182     N        0.03188    0.62449    0.16428    1.000
    N183     N        0.04121    0.51066    0.11900    1.000
    Si184    Si       0.99391    0.64690    0.17158    1.000
    Si185    Si       0.03464    0.75017    0.19295    1.000
    N186     N        0.02544    0.75162    0.14959    1.000
    N187     N        0.00597    0.72017    0.20450    1.000
    Si188    Si       0.99400    0.69251    0.23500    1.000
    N189     N        0.01019    0.52762    0.28479    1.000
    Si190    Si       0.01689    0.56900    0.27260    1.000
    N191     N        0.04021    0.52526    0.34576    1.000
    Si192    Si       0.99938    0.52466    0.32666    1.000
    Si193    Si       0.02649    0.62762    0.35860    1.000
    Si194    Si       0.01410    0.67749    0.30674    1.000
    N195     N        0.02477    0.68382    0.26605    1.000
    N196     N        0.03604    0.70785    0.33010    1.000
    N197     N        0.03897    0.64312    0.31914    1.000
    N198     N        0.03587    0.60894    0.43524    1.000
    Si199    Si       0.01614    0.60153    0.47285    1.000
    Si200    Si       0.02792    0.52841    0.38760    1.000
    N201     N        0.03408    0.51291    0.46877    1.000
    N202     N        0.99317    0.55247    0.39528    1.000
    Si203    Si       0.99798    0.72256    0.43376    1.000
    N204     N        0.00647    0.68148    0.44933    1.000
    Si205    Si       0.03313    0.65457    0.43012    1.000
    N206     N        0.03182    0.66239    0.38588    1.000
    Si207    Si       0.03124    0.70372    0.37460    1.000
    N208     N        0.99455    0.72132    0.39090    1.000
    N209     N        0.03537    0.63348    0.49731    1.000
    Si210    Si       0.03797    0.53450    0.50608    1.000
    N211     N        0.01959    0.56722    0.61078    1.000
    Si212    Si       0.99859    0.52810    0.60424    1.000
    N213     N        0.01234    0.56848    0.50125    1.000
    Si214    Si       0.99215    0.59450    0.59368    1.000
    N215     N        0.00304    0.73536    0.57042    1.000
    Si216    Si       0.00868    0.63877    0.53215    1.000
    N217     N        0.03806    0.65889    0.55983    1.000
    Si218    Si       0.99563    0.74695    0.61326    1.000
    Si219    Si       0.04621    0.66842    0.60032    1.000
    N220     N        0.01764    0.52778    0.69014    1.000
    N221     N        0.02279    0.64350    0.66907    1.000
    N222     N        0.01957    0.75278    0.65142    1.000
    Si223    Si       0.99659    0.66274    0.64055    1.000
    N224     N        0.02132    0.69464    0.62424    1.000
    N225     N        0.00934    0.69949    0.71951    1.000
    Si226    Si       0.00469    0.65944    0.70599    1.000
    Si227    Si       0.01167    0.74132    0.73275    1.000
    N228     N        0.02980    0.64501    0.74060    1.000
    Si229    Si       0.02220    0.61835    0.83668    1.000
    N230     N        0.01279    0.53660    0.80875    1.000
    Si231    Si       0.02184    0.56604    0.77666    1.000
    N232     N        0.03327    0.60526    0.79592    1.000
    N233     N        0.00277    0.58274    0.85331    1.000
    Si234    Si       0.02649    0.54721    0.85008    1.000
    N235     N        0.03533    0.72989    0.76813    1.000
    Si236    Si       0.00290    0.74947    0.79924    1.000
    N237     N        0.03452    0.74953    0.83039    1.000
    Si238    Si       0.04014    0.68806    0.75263    1.000
    N239     N        0.99977    0.65389    0.84661    1.000
    Si240    Si       0.01558    0.74793    0.87188    1.000
    N241     N        0.02620    0.53802    0.98068    1.000
    Si242    Si       0.03028    0.52058    0.94080    1.000
    N243     N        0.00117    0.53472    0.91287    1.000
    N244     N        0.01814    0.70701    0.88978    1.000
    Si245    Si       0.01191    0.64489    0.96370    1.000
    N246     N        0.00958    0.68773    0.97002    1.000
    N247     N        0.01602    0.64399    0.91986    1.000
    Si248    Si       0.99737    0.66826    0.88838    1.000
    Si249    Si       0.01627    0.87050    0.03367    1.000
    Si250    Si       0.02589    0.84968    0.10309    1.000
    N251     N        0.03772    0.84602    0.06347    1.000
    N252     N        0.99599    0.80563    0.00328    1.000
    N253     N        0.01788    0.80919    0.11954    1.000
    Si254    Si       0.99319    0.76404    0.01586    1.000
    N255     N        0.99340    0.87693    0.11201    1.000
    N256     N        0.03825    0.86099    0.99715    1.000
    N257     N        0.01472    0.91434    0.03615    1.000
    N258     N        0.01363    0.98923    0.09487    1.000
    N259     N        0.02516    0.85016    0.19043    1.000
    N260     N        0.02235    0.78588    0.21756    1.000
    Si261    Si       0.99765    0.81913    0.20377    1.000
    Si262    Si       0.99314    0.78091    0.13969    1.000
    N263     N        0.04439    0.97394    0.23647    1.000
    N264     N        0.00060    0.97992    0.16292    1.000
    Si265    Si       0.00272    0.99903    0.23049    1.000
    N266     N        0.99718    0.91749    0.17453    1.000
    Si267    Si       0.03452    0.94973    0.16936    1.000
    Si268    Si       0.01949    0.89206    0.20167    1.000
    N269     N        0.99797    0.89227    0.23838    1.000
    N270     N        0.03180    0.83596    0.26870    1.000
    N271     N        0.03412    0.84261    0.33748    1.000
    Si272    Si       0.00515    0.82393    0.36208    1.000
    Si273    Si       0.03288    0.79430    0.25754    1.000
    Si274    Si       0.99525    0.85773    0.26384    1.000
    N275     N        0.01449    0.78097    0.36723    1.000
    N276     N        0.04519    0.76165    0.27954    1.000
    N277     N        0.01584    0.91293    0.35352    1.000
    Si278    Si       0.03060    0.96752    0.27793    1.000
    N279     N        0.00107    0.93478    0.28756    1.000
    Si280    Si       0.04402    0.99868    0.34376    1.000
    N281     N        0.00425    0.00463    0.27398    1.000
    N282     N        0.01601    0.84726    0.39964    1.000
    Si283    Si       0.04076    0.76856    0.47352    1.000
    Si284    Si       0.04106    0.76791    0.39922    1.000
    N285     N        0.02154    0.76176    0.43658    1.000
    Si286    Si       0.00016    0.88411    0.48609    1.000
    N287     N        0.02387    0.91798    0.41741    1.000
    Si288    Si       0.01728    0.94281    0.38462    1.000
    N289     N        0.04553    0.97605    0.37977    1.000
    Si290    Si       0.99658    0.88457    0.41213    1.000
    Si291    Si       0.03525    0.99760    0.48252    1.000
    N292     N        0.04544    0.97267    0.44856    1.000
    N293     N        0.03373    0.91091    0.48360    1.000
    Si294    Si       0.05111    0.92806    0.44904    1.000
    N295     N        0.02968    0.80080    0.55389    1.000
    N296     N        0.01062    0.85919    0.58759    1.000
    N297     N        0.00174    0.84764    0.50970    1.000
    Si298    Si       0.03985    0.82910    0.52079    1.000
    Si299    Si       0.99772    0.81760    0.57708    1.000
    N300     N        0.01237    0.75992    0.50509    1.000
    Si301    Si       0.03053    0.75917    0.54328    1.000
    Si302    Si       0.04188    0.88287    0.56945    1.000
    N303     N        0.03611    0.92278    0.54976    1.000
    Si304    Si       0.01450    0.93495    0.51579    1.000
    N305     N        0.01741    0.98995    0.58274    1.000
    Si306    Si       0.00755    0.95475    0.60507    1.000
    N307     N        0.01439    0.97788    0.51445    1.000
    Si308    Si       0.99542    0.99920    0.54748    1.000
    N309     N        0.03424    0.77372    0.71548    1.000
    N310     N        0.00596    0.82570    0.67628    1.000
    Si311    Si       0.02878    0.78895    0.67438    1.000
    Si312    Si       0.02286    0.86494    0.67603    1.000
    N313     N        0.02365    0.87811    0.71912    1.000
    Si314    Si       0.00841    0.91995    0.72278    1.000
    N315     N        0.04029    0.93924    0.62743    1.000
    N316     N        0.03095    0.00157    0.68005    1.000
    N317     N        0.03849    0.93711    0.69642    1.000
    N318     N        0.99465    0.88780    0.64936    1.000
    Si319    Si       0.02311    0.96019    0.66380    1.000
    N320     N        0.03313    0.82103    0.76714    1.000
    Si321    Si       0.03492    0.84910    0.80129    1.000
    N322     N        0.99268    0.85628    0.79759    1.000
    Si323    Si       0.98821    0.82066    0.77359    1.000
    Si324    Si       0.01638    0.96329    0.78146    1.000
    N325     N        0.03600    0.94789    0.81692    1.000
    N326     N        0.99688    0.93050    0.76201    1.000
    N327     N        0.04048    0.98917    0.75437    1.000
    N328     N        0.01916    0.00828    0.84668    1.000
    Si329    Si       0.04697    0.97611    0.84792    1.000
    Si330    Si       0.03461    0.82381    0.87648    1.000
    Si331    Si       0.02096    0.82589    0.97651    1.000
    N332     N        0.03586    0.78271    0.89139    1.000
    N333     N        0.00058    0.84834    0.94447    1.000
    Si334    Si       0.02651    0.87580    0.92314    1.000
    N335     N        0.04925    0.79478    0.96370    1.000
    N336     N        0.99092    0.83090    0.87630    1.000
    N337     N        0.00217    0.89540    0.89320    1.000
    N338     N        0.04446    0.95293    0.88488    1.000
    Si339    Si       0.00440    0.93839    0.89007    1.000
    Si340    Si       0.01044    0.97586    0.95806    1.000
    N341     N        0.98929    0.95648    0.92651    1.000
    N342     N        0.06132    0.09487    0.10908    1.000
    Si343    Si       0.09260    0.05935    0.07317    1.000
    Si344    Si       0.07452    0.12607    0.07840    1.000
    N345     N        0.05218    0.04071    0.07222    1.000
    N346     N        0.10258    0.09816    0.05592    1.000
    N347     N        0.05438    0.01865    0.00489    1.000
    Si348    Si       0.06637    0.01116    0.04507    1.000
    N349     N        0.10967    0.05006    0.11251    1.000
    N350     N        0.06555    0.19367    0.02330    1.000
    Si351    Si       0.08531    0.18360    0.11405    1.000
    N352     N        0.07777    0.22525    0.11248    1.000
    N353     N        0.09913    0.16329    0.07784    1.000
    Si354    Si       0.10605    0.17810    0.03627    1.000
    Si355    Si       0.09554    0.25179    0.08217    1.000
    Si356    Si       0.09122    0.07942    0.13837    1.000
    N357     N        0.06738    0.07196    0.17528    1.000
    N358     N        0.08710    0.04127    0.23202    1.000
    N359     N        0.09856    0.11673    0.21502    1.000
    Si360    Si       0.07747    0.07979    0.21793    1.000
    N361     N        0.04749    0.14087    0.17707    1.000
    Si362    Si       0.09172    0.13622    0.17606    1.000
    N363     N        0.10285    0.17135    0.15157    1.000
    N364     N        0.05584    0.16507    0.23883    1.000
    N365     N        0.08041    0.22815    0.23208    1.000
    N366     N        0.06894    0.03405    0.34466    1.000
    N367     N        0.07608    0.07794    0.29667    1.000
    Si368    Si       0.09745    0.04131    0.31344    1.000
    N369     N        0.08179    0.13936    0.29000    1.000
    N370     N        0.08996    0.23080    0.34990    1.000
    N371     N        0.06055    0.16623    0.35000    1.000
    Si372    Si       0.05990    0.20428    0.36897    1.000
    Si373    Si       0.09343    0.14679    0.24841    1.000
    Si374    Si       0.05081    0.15989    0.30792    1.000
    Si375    Si       0.07708    0.13330    0.37210    1.000
    N376     N        0.07108    0.01557    0.49511    1.000
    Si377    Si       0.06805    0.05909    0.37982    1.000
    N378     N        0.08838    0.14049    0.41321    1.000
    Si379    Si       0.10857    0.21776    0.49266    1.000
    N380     N        0.06938    0.20469    0.41044    1.000
    N381     N        0.07216    0.23824    0.47532    1.000
    Si382    Si       0.10242    0.17849    0.42303    1.000
    Si383    Si       0.07582    0.04860    0.52342    1.000
    N384     N        0.06956    0.09177    0.51890    1.000
    N385     N        0.08311    0.07946    0.60820    1.000
    Si386    Si       0.09931    0.11578    0.58849    1.000
    N387     N        0.05457    0.03833    0.55986    1.000
    Si388    Si       0.10869    0.10862    0.52102    1.000
    N389     N        0.06694    0.13659    0.56748    1.000
    Si390    Si       0.07432    0.16853    0.53941    1.000
    N391     N        0.08585    0.21148    0.53532    1.000
    N392     N        0.09857    0.21415    0.60942    1.000
    Si393    Si       0.09171    0.25721    0.61551    1.000
    N394     N        0.07520    0.01608    0.62048    1.000
    N395     N        0.07875    0.05333    0.67209    1.000
    Si396    Si       0.07184    0.06922    0.71115    1.000
    Si397    Si       0.10185    0.04834    0.63360    1.000
    N398     N        0.05183    0.10952    0.70782    1.000
    N399     N        0.10754    0.07055    0.73444    1.000
    Si400    Si       0.05298    0.19160    0.74084    1.000
    N401     N        0.06855    0.23409    0.73911    1.000
    N402     N        0.07405    0.16514    0.66218    1.000
    Si403    Si       0.08106    0.13845    0.69548    1.000
    N404     N        0.08468    0.16546    0.72945    1.000
    Si405    Si       0.10590    0.18879    0.64307    1.000
    Si406    Si       0.10604    0.22471    0.71906    1.000
    N407     N        0.08062    0.06065    0.82402    1.000
    Si408    Si       0.06722    0.09696    0.84330    1.000
    Si409    Si       0.10329    0.02440    0.82290    1.000
    N410     N        0.09423    0.12840    0.86122    1.000
    N411     N        0.10599    0.01232    0.77988    1.000
    N412     N        0.10115    0.16033    0.80108    1.000
    Si413    Si       0.05822    0.16055    0.80811    1.000
    Si414    Si       0.09022    0.06673    0.95207    1.000
    N415     N        0.10171    0.02545    0.95027    1.000
    N416     N        0.09843    0.08346    0.98939    1.000
    N417     N        0.10368    0.09157    0.92059    1.000
    Si418    Si       0.09138    0.12967    0.90426    1.000
    Si419    Si       0.08436    0.25046    0.88688    1.000
    Si420    Si       0.10370    0.20245    0.92331    1.000
    N421     N        0.05234    0.14732    0.91496    1.000
    N422     N        0.07110    0.20957    0.89619    1.000
    Si423    Si       0.06441    0.17877    0.98258    1.000
    N424     N        0.10064    0.19743    0.96636    1.000
    Si425    Si       0.05971    0.30258    0.03555    1.000
    N426     N        0.08409    0.36351    0.10143    1.000
    N427     N        0.08722    0.28920    0.11176    1.000
    N428     N        0.09772    0.32328    0.04556    1.000
    Si429    Si       0.10029    0.32368    0.08868    1.000
    Si430    Si       0.05207    0.37017    0.07219    1.000
    N431     N        0.06669    0.25990    0.04911    1.000
    Si432    Si       0.07967    0.43898    0.06568    1.000
    N433     N        0.07205    0.40105    0.04762    1.000
    N434     N        0.09489    0.48614    0.06995    1.000
    Si435    Si       0.07670    0.42029    0.00656    1.000
    N436     N        0.05595    0.45741    0.01594    1.000
    N437     N        0.10693    0.43662    0.10394    1.000
    N438     N        0.04909    0.29327    0.22199    1.000
    Si439    Si       0.09559    0.31917    0.21311    1.000
    N440     N        0.06779    0.34998    0.19283    1.000
    Si441    Si       0.05759    0.25893    0.13096    1.000
    Si442    Si       0.07070    0.25977    0.20435    1.000
    N443     N        0.10659    0.28065    0.19295    1.000
    Si444    Si       0.09166    0.50420    0.21936    1.000
    Si445    Si       0.06479    0.39132    0.17932    1.000
    N446     N        0.08560    0.46688    0.24077    1.000
    N447     N        0.10751    0.39732    0.16511    1.000
    N448     N        0.05715    0.33439    0.28437    1.000
    Si449    Si       0.09995    0.32606    0.29362    1.000
    Si450    Si       0.07251    0.26423    0.32773    1.000
    N451     N        0.05511    0.28891    0.36141    1.000
    N452     N        0.04911    0.26824    0.29274    1.000
    Si453    Si       0.09386    0.30321    0.36836    1.000
    N454     N        0.10420    0.29739    0.32470    1.000
    N455     N        0.06113    0.40788    0.27339    1.000
    N456     N        0.06966    0.48478    0.30220    1.000
    Si457    Si       0.06142    0.48463    0.34464    1.000
    Si458    Si       0.06042    0.41192    0.36840    1.000
    N459     N        0.10011    0.48220    0.36879    1.000
    Si460    Si       0.10404    0.47236    0.28044    1.000
    N461     N        0.10216    0.41059    0.37035    1.000
    Si462    Si       0.05208    0.43963    0.24434    1.000
    N463     N        0.07760    0.35311    0.45490    1.000
    Si464    Si       0.06963    0.32530    0.48809    1.000
    N465     N        0.10251    0.33930    0.39039    1.000
    N466     N        0.04686    0.41030    0.40983    1.000
    N467     N        0.07676    0.42003    0.47284    1.000
    Si468    Si       0.09728    0.45663    0.46942    1.000
    Si469    Si       0.05585    0.38970    0.44818    1.000
    N470     N        0.09504    0.48646    0.44045    1.000
    Si471    Si       0.07640    0.36332    0.55163    1.000
    N472     N        0.09011    0.33135    0.58189    1.000
    Si473    Si       0.08798    0.29694    0.55107    1.000
    N474     N        0.10124    0.30618    0.51047    1.000
    N475     N        0.05063    0.26601    0.61774    1.000
    N476     N        0.05025    0.27573    0.54892    1.000
    Si477    Si       0.05322    0.34800    0.60584    1.000
    N478     N        0.09489    0.40107    0.54158    1.000
    Si479    Si       0.07026    0.42542    0.51544    1.000
    N480     N        0.09101    0.46611    0.51256    1.000
    N481     N        0.07996    0.46730    0.57522    1.000
    Si482    Si       0.07022    0.49257    0.54113    1.000
    Si483    Si       0.05601    0.47610    0.60872    1.000
    Si484    Si       0.10718    0.43410    0.56886    1.000
    Si485    Si       0.09254    0.33645    0.73534    1.000
    N486     N        0.09156    0.34221    0.69137    1.000
    Si487    Si       0.05179    0.35558    0.68165    1.000
    N488     N        0.08946    0.38022    0.74305    1.000
    N489     N        0.08652    0.44953    0.72753    1.000
    Si490    Si       0.10393    0.43094    0.64221    1.000
    N491     N        0.06082    0.44164    0.63481    1.000
    Si492    Si       0.09071    0.40812    0.71046    1.000
    Si493    Si       0.09946    0.50610    0.65377    1.000
    Si494    Si       0.07965    0.34930    0.83341    1.000
    Si495    Si       0.07228    0.26835    0.76625    1.000
    N496     N        0.05204    0.37863    0.81888    1.000
    N497     N        0.08877    0.25706    0.84364    1.000
    Si498    Si       0.05140    0.27308    0.83289    1.000
    N499     N        0.05089    0.31629    0.83759    1.000
    N500     N        0.06486    0.30659    0.74654    1.000
    N501     N        0.09350    0.42768    0.79300    1.000
    Si502    Si       0.06952    0.45489    0.76816    1.000
    Si503    Si       0.07579    0.41543    0.83053    1.000
    N504     N        0.06376    0.49023    0.79916    1.000
    N505     N        0.10865    0.51147    0.85728    1.000
    N506     N        0.09097    0.34743    0.87500    1.000
    Si507    Si       0.07957    0.32344    0.90875    1.000
    N508     N        0.06348    0.28388    0.90263    1.000
    Si509    Si       0.06862    0.34833    0.97763    1.000
    N510     N        0.05536    0.34814    0.93442    1.000
    N511     N        0.04643    0.31279    0.99494    1.000
    N512     N        0.09218    0.43419    0.96467    1.000
    Si513    Si       0.07433    0.50543    0.88577    1.000
    N514     N        0.08678    0.46679    0.90436    1.000
    N515     N        0.05089    0.38605    0.98851    1.000
    Si516    Si       0.06291    0.44990    0.93531    1.000
    N517     N        0.09104    0.52039    0.00855    1.000
    N518     N        0.10171    0.62521    0.02837    1.000
    Si519    Si       0.05170    0.54452    0.01526    1.000
    Si520    Si       0.07494    0.60718    0.99974    1.000
    N521     N        0.07522    0.65429    0.08763    1.000
    Si522    Si       0.08885    0.66292    0.04498    1.000
    N523     N        0.06340    0.74953    0.09926    1.000
    Si524    Si       0.10684    0.59355    0.13636    1.000
    N525     N        0.06857    0.57102    0.13590    1.000
    Si526    Si       0.07021    0.52758    0.14505    1.000
    N527     N        0.06918    0.52426    0.18848    1.000
    N528     N        0.08168    0.59697    0.20647    1.000
    Si529    Si       0.06298    0.55843    0.21781    1.000
    Si530    Si       0.07022    0.63300    0.18417    1.000
    N531     N        0.10128    0.63569    0.15395    1.000
    N532     N        0.06843    0.69400    0.14498    1.000
    Si533    Si       0.09647    0.66932    0.12335    1.000
    N534     N        0.07744    0.74071    0.19694    1.000
    N535     N        0.07245    0.66813    0.20741    1.000
    Si536    Si       0.08926    0.70084    0.18399    1.000
    Si537    Si       0.06227    0.56152    0.33589    1.000
    Si538    Si       0.07242    0.62159    0.30162    1.000
    N539     N        0.07727    0.53181    0.25304    1.000
    N540     N        0.10449    0.55635    0.32221    1.000
    N541     N        0.05166    0.59221    0.36422    1.000
    N542     N        0.04945    0.58221    0.29794    1.000
    N543     N        0.08003    0.63439    0.26196    1.000
    N544     N        0.08848    0.74855    0.33021    1.000
    N545     N        0.08538    0.70274    0.27485    1.000
    Si546    Si       0.06066    0.72894    0.30114    1.000
    Si547    Si       0.06656    0.67283    0.25115    1.000
    Si548    Si       0.09609    0.73107    0.36873    1.000
    Si549    Si       0.06210    0.58737    0.40896    1.000
    N550     N        0.06105    0.54377    0.41069    1.000
    N551     N        0.10054    0.60110    0.41937    1.000
    Si552    Si       0.05952    0.50689    0.43492    1.000
    Si553    Si       0.07887    0.70891    0.43661    1.000
    N554     N        0.06743    0.73405    0.47234    1.000
    N555     N        0.07432    0.66495    0.44500    1.000
    N556     N        0.06161    0.72594    0.39714    1.000
    Si557    Si       0.07436    0.65217    0.48774    1.000
    N558     N        0.07495    0.53778    0.53164    1.000
    N559     N        0.08384    0.57529    0.59268    1.000
    Si560    Si       0.09734    0.61769    0.59636    1.000
    Si561    Si       0.10418    0.55973    0.55518    1.000
    N562     N        0.10281    0.62962    0.55456    1.000
    N563     N        0.06841    0.63843    0.62204    1.000
    N564     N        0.08878    0.68304    0.51372    1.000
    Si565    Si       0.09022    0.72490    0.50707    1.000
    N566     N        0.08355    0.68897    0.58669    1.000
    Si567    Si       0.08001    0.66564    0.55038    1.000
    N568     N        0.06843    0.74130    0.54257    1.000
    Si569    Si       0.09190    0.72970    0.57680    1.000
    N570     N        0.07460    0.74654    0.61413    1.000
    N571     N        0.06738    0.51454    0.62563    1.000
    Si572    Si       0.05863    0.55920    0.62401    1.000
    N573     N        0.05759    0.57842    0.66494    1.000
    Si574    Si       0.05894    0.62302    0.66309    1.000
    N575     N        0.08627    0.51641    0.69302    1.000
    Si576    Si       0.05442    0.54668    0.70043    1.000
    N577     N        0.05226    0.55876    0.74412    1.000
    N578     N        0.08829    0.63412    0.69294    1.000
    N579     N        0.07743    0.69991    0.73275    1.000
    N580     N        0.07925    0.69476    0.66085    1.000
    Si581    Si       0.09206    0.67842    0.69793    1.000
    Si582    Si       0.04965    0.72247    0.64359    1.000
    Si583    Si       0.10287    0.67639    0.62579    1.000
    N584     N        0.06735    0.56106    0.84462    1.000
    N585     N        0.09320    0.61355    0.76115    1.000
    Si586    Si       0.09179    0.56829    0.75932    1.000
    Si587    Si       0.08325    0.52394    0.82246    1.000
    Si588    Si       0.08400    0.59915    0.86515    1.000
    N589     N        0.06131    0.63262    0.84925    1.000
    Si590    Si       0.05601    0.63169    0.77216    1.000
    Si591    Si       0.07610    0.66925    0.83033    1.000
    Si592    Si       0.07688    0.74041    0.83191    1.000
    N593     N        0.07581    0.70382    0.85752    1.000
    Si594    Si       0.07821    0.73145    0.76160    1.000
    N595     N        0.05605    0.67171    0.79235    1.000
    N596     N        0.10095    0.72341    0.79869    1.000
    N597     N        0.07202    0.59657    0.90765    1.000
    N598     N        0.06846    0.52854    0.92059    1.000
    Si599    Si       0.08980    0.56463    0.93150    1.000
    N600     N        0.09265    0.57513    0.97306    1.000
    N601     N        0.05464    0.63153    0.96925    1.000
    Si602    Si       0.05864    0.63303    0.92529    1.000
    N603     N        0.09794    0.75079    0.98202    1.000
    N604     N        0.08377    0.66850    0.91421    1.000
    Si605    Si       0.06265    0.70198    0.89886    1.000
    N606     N        0.07201    0.73773    0.92256    1.000
    N607     N        0.07345    0.78877    0.03303    1.000
    Si608    Si       0.07385    0.82662    0.05282    1.000
    N609     N        0.08926    0.80849    0.09328    1.000
    Si610    Si       0.09027    0.76998    0.06993    1.000
    Si611    Si       0.05585    0.78599    0.12123    1.000
    N612     N        0.10218    0.85283    0.03556    1.000
    Si613    Si       0.05459    0.92890    0.04390    1.000
    N614     N        0.09634    0.98188    0.11135    1.000
    N615     N        0.07411    0.90513    0.07522    1.000
    N616     N        0.07749    0.91498    0.01036    1.000
    N617     N        0.06045    0.96935    0.05469    1.000
    Si618    Si       0.05359    0.97151    0.09890    1.000
    Si619    Si       0.07144    0.90392    0.11877    1.000
    Si620    Si       0.10060    0.77316    0.17856    1.000
    N621     N        0.09669    0.85795    0.18586    1.000
    Si622    Si       0.06130    0.84089    0.16752    1.000
    N623     N        0.07064    0.79976    0.15964    1.000
    N624     N        0.05848    0.86365    0.13066    1.000
    N625     N        0.05561    0.92005    0.19848    1.000
    N626     N        0.07103    0.97806    0.17443    1.000
    Si627    Si       0.09426    0.90090    0.18255    1.000
    Si628    Si       0.10256    0.96077    0.14820    1.000
    Si629    Si       0.08015    0.94648    0.22850    1.000
    Si630    Si       0.06770    0.00558    0.21145    1.000
    N631     N        0.10542    0.91613    0.14350    1.000
    N632     N        0.04632    0.93942    0.12669    1.000
    N633     N        0.09150    0.81805    0.29883    1.000
    Si634    Si       0.05856    0.84577    0.30042    1.000
    Si635    Si       0.10722    0.77769    0.30473    1.000
    N636     N        0.07201    0.88465    0.31313    1.000
    Si637    Si       0.04822    0.88314    0.35006    1.000
    N638     N        0.08637    0.93676    0.27035    1.000
    Si639    Si       0.09814    0.96607    0.30075    1.000
    N640     N        0.05474    0.97279    0.31156    1.000
    N641     N        0.05625    0.80577    0.48819    1.000
    N642     N        0.06851    0.80226    0.40291    1.000
    N643     N        0.07431    0.87653    0.38557    1.000
    Si644    Si       0.05871    0.84329    0.40857    1.000
    Si645    Si       0.09485    0.82149    0.47264    1.000
    N646     N        0.08704    0.85338    0.44348    1.000
    N647     N        0.09316    0.92578    0.43730    1.000
    Si648    Si       0.10126    0.88601    0.41939    1.000
    N649     N        0.10427    0.99913    0.42543    1.000
    Si650    Si       0.06268    0.99572    0.41531    1.000
    N651     N        0.06357    0.86217    0.53837    1.000
    Si652    Si       0.10657    0.87174    0.53514    1.000
    Si653    Si       0.06094    0.00164    0.58212    1.000
    N654     N        0.07731    0.90162    0.59287    1.000
    N655     N        0.09099    0.97479    0.56540    1.000
    Si656    Si       0.07902    0.93150    0.55928    1.000
    N657     N        0.10790    0.91656    0.52967    1.000
    N658     N        0.07703    0.83569    0.71948    1.000
    N659     N        0.07094    0.80144    0.66062    1.000
    Si660    Si       0.08529    0.83850    0.67745    1.000
    N661     N        0.06391    0.87287    0.66006    1.000
    Si662    Si       0.09569    0.77692    0.63590    1.000
    Si663    Si       0.05942    0.80059    0.73840    1.000
    Si664    Si       0.06211    0.87146    0.74030    1.000
    Si665    Si       0.07142    0.90978    0.63352    1.000
    N666     N        0.08947    0.90337    0.72490    1.000
    N667     N        0.09947    0.96792    0.71929    1.000
    Si668    Si       0.08173    0.93523    0.69625    1.000
    N669     N        0.10023    0.93148    0.65745    1.000
    Si670    Si       0.09243    0.81718    0.82787    1.000
    N671     N        0.09802    0.77702    0.83808    1.000
    N672     N        0.05162    0.83047    0.83634    1.000
    N673     N        0.09105    0.77065    0.75062    1.000
    N674     N        0.05805    0.88330    0.78460    1.000
    N675     N        0.09281    0.91474    0.84298    1.000
    N676     N        0.08741    0.98706    0.84411    1.000
    Si677    Si       0.06808    0.92141    0.80609    1.000
    N678     N        0.09406    0.94717    0.78211    1.000
    Si679    Si       0.08330    0.98203    0.75728    1.000
    Si680    Si       0.09481    0.84256    0.92573    1.000
    Si681    Si       0.06462    0.77997    0.92408    1.000
    N682     N        0.05653    0.84939    0.90567    1.000
    N683     N        0.10308    0.80037    0.91675    1.000
    N684     N        0.10285    0.85720    0.96755    1.000
    Si685    Si       0.06132    0.77017    0.99748    1.000
    N686     N        0.05575    0.90340    0.94150    1.000
    Si687    Si       0.06830    0.93941    0.92184    1.000
    Si688    Si       0.07889    0.99671    0.97516    1.000
    Si689    Si       0.07025    0.88479    0.97883    1.000
    N690     N        0.05311    0.97020    0.95391    1.000
    Si691    Si       0.12111    0.10610    0.01609    1.000
    N692     N        0.11032    0.02379    0.05534    1.000
    Si693    Si       0.12691    0.01380    0.09728    1.000
    N694     N        0.16457    0.09540    0.01574    1.000
    N695     N        0.11906    0.14808    0.00875    1.000
    N696     N        0.13409    0.21106    0.02741    1.000
    N697     N        0.13950    0.25056    0.08417    1.000
    Si698    Si       0.16327    0.22552    0.05615    1.000
    Si699    Si       0.16036    0.11265    0.15943    1.000
    N700     N        0.11738    0.10790    0.15309    1.000
    Si701    Si       0.12224    0.21726    0.23248    1.000
    Si702    Si       0.14323    0.18068    0.16900    1.000
    N703     N        0.16275    0.14739    0.18784    1.000
    N704     N        0.14202    0.21851    0.19301    1.000
    N705     N        0.12539    0.17445    0.24312    1.000
    N706     N        0.13324    0.06790    0.31850    1.000
    N707     N        0.13885    0.11637    0.27659    1.000
    Si708    Si       0.15687    0.07677    0.28129    1.000
    N709     N        0.15252    0.04529    0.25295    1.000
    Si710    Si       0.13488    0.08258    0.36156    1.000
    Si711    Si       0.11833    0.01881    0.25148    1.000
    N712     N        0.10987    0.11493    0.34962    1.000
    Si713    Si       0.10595    0.10775    0.30766    1.000
    Si714    Si       0.15231    0.15708    0.27321    1.000
    N715     N        0.14661    0.17554    0.31079    1.000
    N716     N        0.14875    0.23786    0.25845    1.000
    N717     N        0.16118    0.23367    0.35191    1.000
    N718     N        0.16362    0.01902    0.39599    1.000
    Si719    Si       0.11523    0.01656    0.48413    1.000
    Si720    Si       0.15789    0.07562    0.48267    1.000
    N721     N        0.13033    0.10659    0.48396    1.000
    Si722    Si       0.12986    0.03330    0.41809    1.000
    N723     N        0.14054    0.04279    0.45875    1.000
    N724     N        0.11000    0.06118    0.38922    1.000
    Si725    Si       0.12534    0.23154    0.37448    1.000
    Si726    Si       0.14141    0.14615    0.46956    1.000
    N727     N        0.16057    0.14393    0.42926    1.000
    N728     N        0.13244    0.19443    0.39733    1.000
    N729     N        0.11649    0.18452    0.46427    1.000
    N730     N        0.14044    0.02875    0.58199    1.000
    Si731    Si       0.14643    0.05666    0.55072    1.000
    N732     N        0.12358    0.09320    0.56011    1.000
    N733     N        0.11821    0.04304    0.51903    1.000
    Si734    Si       0.16190    0.01397    0.61632    1.000
    N735     N        0.11522    0.14317    0.61643    1.000
    Si736    Si       0.15519    0.16386    0.53904    1.000
    N737     N        0.14877    0.20209    0.55925    1.000
    N738     N        0.11468    0.15228    0.53020    1.000
    Si739    Si       0.11236    0.22356    0.56706    1.000
    N740     N        0.13944    0.25032    0.49674    1.000
    N741     N        0.16887    0.16442    0.49830    1.000
    N742     N        0.12096    0.12176    0.68600    1.000
    Si743    Si       0.13720    0.09873    0.71848    1.000
    N744     N        0.14180    0.03455    0.64855    1.000
    N745     N        0.14825    0.01494    0.72501    1.000
    Si746    Si       0.16270    0.03378    0.68657    1.000
    N747     N        0.10704    0.22021    0.67492    1.000
    Si748    Si       0.14241    0.13547    0.64993    1.000
    N749     N        0.15116    0.17929    0.65215    1.000
    Si750    Si       0.13466    0.25518    0.67090    1.000
    N751     N        0.13112    0.20519    0.74913    1.000
    N752     N        0.14068    0.03101    0.84107    1.000
    N753     N        0.15568    0.12020    0.82187    1.000
    N754     N        0.15945    0.06499    0.77506    1.000
    Si755    Si       0.13052    0.03970    0.75562    1.000
    N756     N        0.14055    0.12797    0.75144    1.000
    Si757    Si       0.16402    0.10834    0.78067    1.000
    Si758    Si       0.11732    0.16392    0.75950    1.000
    N759     N        0.14966    0.17542    0.85896    1.000
    Si760    Si       0.12429    0.14917    0.83575    1.000
    N761     N        0.16116    0.24683    0.84390    1.000
    Si762    Si       0.14577    0.01992    0.94959    1.000
    Si763    Si       0.14734    0.09386    0.92347    1.000
    N764     N        0.15320    0.12385    0.95512    1.000
    N765     N        0.15871    0.02798    0.99139    1.000
    N766     N        0.16285    0.11442    0.88810    1.000
    N767     N        0.16019    0.05405    0.92515    1.000
    Si768    Si       0.13249    0.16029    0.96614    1.000
    N769     N        0.12052    0.16226    0.91697    1.000
    N770     N        0.16171    0.19209    0.96690    1.000
    Si771    Si       0.13542    0.22118    0.98538    1.000
    Si772    Si       0.15860    0.15722    0.89654    1.000
    N773     N        0.11863    0.24335    0.91327    1.000
    Si774    Si       0.12983    0.34092    0.02271    1.000
    N775     N        0.14305    0.32457    0.09484    1.000
    Si776    Si       0.15462    0.28399    0.10507    1.000
    N777     N        0.14465    0.37678    0.04342    1.000
    Si778    Si       0.16334    0.36233    0.08162    1.000
    N779     N        0.15202    0.38847    0.11497    1.000
    Si780    Si       0.15223    0.41618    0.02369    1.000
    N781     N        0.15195    0.49348    0.02497    1.000
    Si782    Si       0.11950    0.47901    0.10636    1.000
    N783     N        0.16007    0.48644    0.09919    1.000
    N784     N        0.11560    0.44028    0.02778    1.000
    Si785    Si       0.10894    0.48526    0.03020    1.000
    N786     N        0.13460    0.33766    0.19581    1.000
    N787     N        0.16005    0.27870    0.14977    1.000
    Si788    Si       0.14675    0.29722    0.18566    1.000
    Si789    Si       0.13316    0.38159    0.19460    1.000
    Si790    Si       0.15547    0.33025    0.24620    1.000
    N791     N        0.10921    0.50909    0.13683    1.000
    N792     N        0.16299    0.45671    0.22304    1.000
    Si793    Si       0.15778    0.49680    0.23809    1.000
    N794     N        0.11834    0.39335    0.23191    1.000
    Si795    Si       0.10953    0.39617    0.12093    1.000
    Si796    Si       0.15603    0.36502    0.31142    1.000
    N797     N        0.11425    0.36735    0.29896    1.000
    N798     N        0.15597    0.36177    0.35326    1.000
    N799     N        0.11376    0.31756    0.25203    1.000
    Si800    Si       0.10647    0.40017    0.27226    1.000
    N801     N        0.13402    0.50339    0.27383    1.000
    N802     N        0.12438    0.43542    0.28941    1.000
    Si803    Si       0.12684    0.44628    0.36867    1.000
    N804     N        0.16398    0.44633    0.34358    1.000
    Si805    Si       0.11412    0.34407    0.43351    1.000
    Si806    Si       0.14680    0.28595    0.41505    1.000
    N807     N        0.13384    0.31031    0.44911    1.000
    N808     N        0.14203    0.37526    0.41865    1.000
    Si809    Si       0.12457    0.37459    0.37796    1.000
    N810     N        0.11528    0.27225    0.39270    1.000
    Si811    Si       0.13562    0.29161    0.48896    1.000
    N812     N        0.15224    0.46469    0.40230    1.000
    N813     N        0.14206    0.45226    0.47655    1.000
    Si814    Si       0.12199    0.49786    0.40646    1.000
    Si815    Si       0.12150    0.31006    0.60548    1.000
    N816     N        0.16020    0.31371    0.58440    1.000
    N817     N        0.10930    0.26773    0.57646    1.000
    Si818    Si       0.13691    0.46997    0.51850    1.000
    N819     N        0.12372    0.42410    0.60619    1.000
    N820     N        0.14669    0.44845    0.55598    1.000
    N821     N        0.11677    0.28096    0.63934    1.000
    Si822    Si       0.12569    0.35727    0.67132    1.000
    N823     N        0.13440    0.34501    0.63262    1.000
    N824     N        0.12698    0.26415    0.71354    1.000
    Si825    Si       0.16168    0.35383    0.73719    1.000
    N826     N        0.16386    0.35369    0.69433    1.000
    N827     N        0.13173    0.32426    0.74839    1.000
    N828     N        0.14081    0.50509    0.72300    1.000
    N829     N        0.11298    0.46706    0.66309    1.000
    Si830    Si       0.11675    0.47251    0.70652    1.000
    N831     N        0.10888    0.39787    0.67133    1.000
    N832     N        0.14766    0.43900    0.70900    1.000
    N833     N        0.14576    0.30508    0.83917    1.000
    Si834    Si       0.12637    0.26658    0.82635    1.000
    N835     N        0.11740    0.36270    0.81242    1.000
    Si836    Si       0.15635    0.34883    0.83053    1.000
    N837     N        0.11142    0.27003    0.78439    1.000
    Si838    Si       0.13906    0.28172    0.75179    1.000
    Si839    Si       0.11237    0.39135    0.77931    1.000
    N840     N        0.16138    0.47168    0.85656    1.000
    N841     N        0.15156    0.39068    0.75660    1.000
    N842     N        0.10871    0.41740    0.86296    1.000
    N843     N        0.15711    0.36280    0.87278    1.000
    Si844    Si       0.13535    0.35085    0.94782    1.000
    N845     N        0.12040    0.31458    0.92844    1.000
    Si846    Si       0.13771    0.27622    0.93216    1.000
    N847     N        0.11192    0.34873    0.98327    1.000
    Si848    Si       0.11757    0.37944    0.88426    1.000
    N849     N        0.14487    0.26143    0.97480    1.000
    N850     N        0.11936    0.38592    0.92768    1.000
    N851     N        0.15043    0.44455    0.91911    1.000
    N852     N        0.16958    0.50955    0.90636    1.000
    Si853    Si       0.13225    0.42033    0.94974    1.000
    Si854    Si       0.12574    0.45347    0.88244    1.000
    N855     N        0.15966    0.40772    0.98024    1.000
    Si856    Si       0.12719    0.59839    0.05311    1.000
    N857     N        0.14209    0.56657    0.02742    1.000
    N858     N        0.12577    0.60506    0.09769    1.000
    Si859    Si       0.11891    0.54861    0.99563    1.000
    N860     N        0.12744    0.69385    0.10687    1.000
    Si861    Si       0.13859    0.71127    0.06787    1.000
    N862     N        0.11990    0.69097    0.03423    1.000
    N863     N        0.15956    0.73386    0.00049    1.000
    N864     N        0.12959    0.75495    0.05412    1.000
    Si865    Si       0.14378    0.69441    0.99789    1.000
    N866     N        0.13158    0.51490    0.20715    1.000
    N867     N        0.13672    0.56971    0.16003    1.000
    Si868    Si       0.13726    0.52610    0.16464    1.000
    Si869    Si       0.10858    0.61241    0.23796    1.000
    N870     N        0.13025    0.68949    0.17344    1.000
    N871     N        0.13138    0.75190    0.15433    1.000
    N872     N        0.13783    0.63591    0.21619    1.000
    Si873    Si       0.14729    0.71412    0.14017    1.000
    Si874    Si       0.13832    0.64587    0.17545    1.000
    N875     N        0.12924    0.57880    0.26013    1.000
    Si876    Si       0.12959    0.59168    0.33530    1.000
    Si877    Si       0.11223    0.54270    0.28054    1.000
    N878     N        0.10943    0.62884    0.32621    1.000
    Si879    Si       0.12766    0.66932    0.33666    1.000
    N880     N        0.14337    0.70307    0.31364    1.000
    Si881    Si       0.12608    0.71586    0.27618    1.000
    N882     N        0.15637    0.70206    0.24746    1.000
    N883     N        0.12354    0.75864    0.26986    1.000
    N884     N        0.15127    0.59378    0.37371    1.000
    N885     N        0.11317    0.62813    0.48534    1.000
    N886     N        0.13530    0.53679    0.41337    1.000
    Si887    Si       0.13901    0.57945    0.41218    1.000
    N888     N        0.14668    0.65096    0.42908    1.000
    Si889    Si       0.10975    0.63535    0.44177    1.000
    Si890    Si       0.13481    0.75251    0.45875    1.000
    Si891    Si       0.13934    0.68793    0.40771    1.000
    N892     N        0.11199    0.69030    0.37161    1.000
    N893     N        0.12217    0.71477    0.43681    1.000
    N894     N        0.13448    0.57532    0.52871    1.000
    N895     N        0.13468    0.53450    0.57600    1.000
    Si896    Si       0.13305    0.62178    0.52300    1.000
    Si897    Si       0.16015    0.54288    0.54205    1.000
    Si898    Si       0.15442    0.54073    0.61467    1.000
    N899     N        0.15872    0.50735    0.51656    1.000
    Si900    Si       0.16156    0.72213    0.59745    1.000
    N901     N        0.13313    0.73421    0.56695    1.000
    N902     N        0.13048    0.63778    0.61526    1.000
    Si903    Si       0.15517    0.75467    0.53491    1.000
    N904     N        0.12953    0.74672    0.50057    1.000
    N905     N        0.15777    0.62086    0.71718    1.000
    N906     N        0.13192    0.53298    0.64947    1.000
    Si907    Si       0.13113    0.54021    0.69555    1.000
    Si908    Si       0.11485    0.61416    0.72180    1.000
    N909     N        0.11387    0.57066    0.72130    1.000
    N910     N        0.13670    0.70323    0.62768    1.000
    N911     N        0.13468    0.68659    0.69768    1.000
    Si912    Si       0.14236    0.72014    0.66796    1.000
    Si913    Si       0.14914    0.55546    0.80667    1.000
    N914     N        0.15728    0.59925    0.80058    1.000
    N915     N        0.12776    0.61051    0.86368    1.000
    Si916    Si       0.14615    0.62879    0.82916    1.000
    N917     N        0.10814    0.54733    0.79295    1.000
    Si918    Si       0.15101    0.51382    0.86769    1.000
    N919     N        0.14962    0.72892    0.85099    1.000
    N920     N        0.11889    0.66333    0.82259    1.000
    Si921    Si       0.13609    0.70168    0.81605    1.000
    Si922    Si       0.14735    0.60559    0.90073    1.000
    N923     N        0.13149    0.56670    0.91524    1.000
    N924     N        0.14883    0.52995    0.96872    1.000
    N925     N        0.14524    0.62906    0.93820    1.000
    Si926    Si       0.16598    0.54439    0.93087    1.000
    N927     N        0.13993    0.74510    0.91517    1.000
    N928     N        0.12393    0.69492    0.95849    1.000
    N929     N        0.15993    0.67558    0.89670    1.000
    Si930    Si       0.16590    0.72058    0.89110    1.000
    Si931    Si       0.10809    0.73226    0.94471    1.000
    Si932    Si       0.12691    0.66675    0.92502    1.000
    N933     N        0.12958    0.87141    0.09500    1.000
    Si934    Si       0.12472    0.82744    0.10950    1.000
    N935     N        0.15651    0.81283    0.08355    1.000
    Si936    Si       0.12745    0.76137    0.01078    1.000
    Si937    Si       0.13242    0.84246    0.00255    1.000
    N938     N        0.14414    0.80001    0.99913    1.000
    N939     N        0.11193    0.97767    0.00040    1.000
    N940     N        0.13563    0.92238    0.04117    1.000
    Si941    Si       0.11529    0.93544    0.00279    1.000
    Si942    Si       0.11038    0.88897    0.05882    1.000
    N943     N        0.15949    0.94137    0.10445    1.000
    Si944    Si       0.13568    0.00562    0.02263    1.000
    Si945    Si       0.14471    0.90420    0.12179    1.000
    N946     N        0.16610    0.00615    0.11361    1.000
    Si947    Si       0.13183    0.83315    0.18649    1.000
    N948     N        0.16357    0.85445    0.20915    1.000
    N949     N        0.14009    0.81569    0.14782    1.000
    Si950    Si       0.14632    0.78646    0.24098    1.000
    N951     N        0.12056    0.79683    0.20907    1.000
    Si952    Si       0.16176    0.77874    0.13990    1.000
    Si953    Si       0.14542    0.95843    0.21027    1.000
    N954     N        0.11009    0.98323    0.22551    1.000
    N955     N        0.14118    0.96643    0.16651    1.000
    N956     N        0.11664    0.92262    0.21363    1.000
    N957     N        0.14490    0.79373    0.32337    1.000
    N958     N        0.14075    0.85837    0.33912    1.000
    Si959    Si       0.13137    0.83717    0.30216    1.000
    N960     N        0.13062    0.87529    0.27811    1.000
    Si961    Si       0.15372    0.78525    0.36379    1.000
    N962     N        0.15890    0.81728    0.26679    1.000
    Si963    Si       0.16198    0.85837    0.25252    1.000
    N964     N        0.12850    0.93867    0.31695    1.000
    N965     N        0.11110    0.00605    0.29065    1.000
    Si966    Si       0.10499    0.90569    0.29473    1.000
    N967     N        0.14600    0.81854    0.39294    1.000
    Si968    Si       0.15757    0.85823    0.37934    1.000
    N969     N        0.11338    0.78960    0.45237    1.000
    N970     N        0.12248    0.76097    0.38700    1.000
    Si971    Si       0.11186    0.79648    0.40898    1.000
    N972     N        0.14133    0.88917    0.40232    1.000
    Si973    Si       0.11988    0.96066    0.44070    1.000
    N974     N        0.12780    0.97525    0.48242    1.000
    N975     N        0.15703    0.95189    0.41952    1.000
    N976     N        0.13984    0.85942    0.56203    1.000
    Si977    Si       0.15510    0.83350    0.53031    1.000
    N978     N        0.11817    0.79572    0.60499    1.000
    N979     N        0.12028    0.84088    0.50532    1.000
    Si980    Si       0.15955    0.79697    0.59495    1.000
    N981     N        0.16343    0.79516    0.55012    1.000
    Si982    Si       0.16305    0.86865    0.59906    1.000
    N983     N        0.15745    0.97110    0.54037    1.000
    Si984    Si       0.13557    0.94392    0.51119    1.000
    Si985    Si       0.13268    0.98465    0.57299    1.000
    N986     N        0.14546    0.97230    0.61273    1.000
    N987     N        0.14950    0.79239    0.72894    1.000
    Si988    Si       0.14044    0.79148    0.68725    1.000
    N989     N        0.12901    0.83053    0.67416    1.000
    N990     N        0.12093    0.75811    0.66715    1.000
    Si991    Si       0.14048    0.94113    0.64112    1.000
    N992     N        0.14885    0.89951    0.62607    1.000
    Si993    Si       0.14300    0.97150    0.71456    1.000
    N994     N        0.16180    0.95770    0.67547    1.000
    N995     N        0.15291    0.93827    0.74063    1.000
    Si996    Si       0.13846    0.85489    0.80036    1.000
    Si997    Si       0.12783    0.78744    0.76627    1.000
    N998     N        0.11986    0.84881    0.84169    1.000
    Si999    Si       0.14091    0.76840    0.83480    1.000
    N1000    N        0.15525    0.79616    0.86443    1.000
    N1001    N        0.15397    0.76645    0.79311    1.000
    N1002    N        0.11279    0.82184    0.78746    1.000
    Si1003   Si       0.16382    0.83773    0.85616    1.000
    Si1004   Si       0.11729    0.88631    0.86502    1.000
    N1005    N        0.13892    0.88881    0.77617    1.000
    N1006    N        0.15689    0.89854    0.85424    1.000
    N1007    N        0.14981    0.96427    0.84751    1.000
    Si1008   Si       0.11594    0.92100    0.75481    1.000
    Si1009   Si       0.11041    0.95318    0.86052    1.000
    N1010    N        0.12499    0.86980    0.90650    1.000
    Si1011   Si       0.14314    0.78678    0.90543    1.000
    Si1012   Si       0.14191    0.87974    0.94733    1.000
    N1013    N        0.10811    0.94291    0.90271    1.000
    N1014    N        0.15533    0.98047    0.93605    1.000
    Si1015   Si       0.14093    0.94176    0.93231    1.000
    N1016    N        0.12537    0.92006    0.96555    1.000
    Si1017   Si       0.19383    0.08328    0.04675    1.000
    N1018    N        0.18813    0.06908    0.08714    1.000
    N1019    N        0.20945    0.04905    0.02565    1.000
    Si1020   Si       0.19918    0.03279    0.10648    1.000
    Si1021   Si       0.20425    0.10842    0.10197    1.000
    N1022    N        0.20886    0.12206    0.06160    1.000
    N1023    N        0.22587    0.00737    0.07897    1.000
    N1024    N        0.18147    0.18799    0.06874    1.000
    Si1025   Si       0.18904    0.17558    0.11140    1.000
    Si1026   Si       0.20573    0.16067    0.04433    1.000
    N1027    N        0.20639    0.14945    0.99980    1.000
    N1028    N        0.18833    0.25503    0.03616    1.000
    Si1029   Si       0.21644    0.07655    0.20000    1.000
    N1030    N        0.18357    0.07987    0.17210    1.000
    N1031    N        0.20807    0.10964    0.22623    1.000
    N1032    N        0.21385    0.22947    0.23903    1.000
    N1033    N        0.17702    0.13278    0.12444    1.000
    N1034    N        0.22427    0.17598    0.19574    1.000
    N1035    N        0.16801    0.20123    0.13933    1.000
    Si1036   Si       0.16457    0.23759    0.16250    1.000
    Si1037   Si       0.19567    0.14912    0.21308    1.000
    N1038    N        0.20648    0.24597    0.17126    1.000
    N1039    N        0.19784    0.09033    0.29096    1.000
    N1040    N        0.20620    0.04128    0.34706    1.000
    Si1041   Si       0.21645    0.12165    0.26818    1.000
    Si1042   Si       0.22261    0.06876    0.31919    1.000
    Si1043   Si       0.19000    0.02139    0.24564    1.000
    N1044    N        0.20148    0.01544    0.28622    1.000
    N1045    N        0.20884    0.20805    0.30969    1.000
    Si1046   Si       0.17599    0.19647    0.33496    1.000
    N1047    N        0.19501    0.16208    0.25953    1.000
    N1048    N        0.18960    0.16458    0.36359    1.000
    Si1049   Si       0.21885    0.19798    0.26958    1.000
    N1050    N        0.16906    0.08863    0.38719    1.000
    N1051    N        0.19161    0.09558    0.46301    1.000
    Si1052   Si       0.18457    0.10988    0.42348    1.000
    Si1053   Si       0.19241    0.04991    0.38567    1.000
    N1054    N        0.20632    0.19241    0.42292    1.000
    N1055    N        0.20477    0.22472    0.48347    1.000
    Si1056   Si       0.20422    0.23180    0.44121    1.000
    Si1057   Si       0.17260    0.17559    0.40128    1.000
    N1058    N        0.17215    0.25092    0.41922    1.000
    Si1059   Si       0.19594    0.11526    0.60065    1.000
    N1060    N        0.20638    0.07623    0.58212    1.000
    N1061    N        0.17800    0.06730    0.52130    1.000
    Si1062   Si       0.21669    0.07441    0.53908    1.000
    N1063    N        0.20485    0.01426    0.60804    1.000
    N1064    N        0.17385    0.13990    0.57039    1.000
    N1065    N        0.20504    0.21179    0.60932    1.000
    Si1066   Si       0.19073    0.21356    0.56834    1.000
    N1067    N        0.21306    0.18542    0.54237    1.000
    Si1068   Si       0.18316    0.25528    0.50729    1.000
    N1069    N        0.19918    0.25199    0.54826    1.000
    Si1070   Si       0.20835    0.18420    0.49887    1.000
    Si1071   Si       0.19834    0.09633    0.67375    1.000
    N1072    N        0.17830    0.11373    0.63981    1.000
    N1073    N        0.20261    0.01414    0.68200    1.000
    N1074    N        0.21788    0.11793    0.70455    1.000
    N1075    N        0.16827    0.07556    0.69767    1.000
    Si1076   Si       0.18708    0.20343    0.64769    1.000
    N1077    N        0.21825    0.18311    0.66939    1.000
    N1078    N        0.20137    0.19489    0.73850    1.000
    N1079    N        0.17417    0.24143    0.66493    1.000
    N1080    N        0.20201    0.06976    0.83498    1.000
    Si1081   Si       0.18615    0.10647    0.85256    1.000
    Si1082   Si       0.19359    0.05073    0.79923    1.000
    N1083    N        0.20334    0.12643    0.77282    1.000
    Si1084   Si       0.22530    0.04003    0.85789    1.000
    N1085    N        0.19758    0.00881    0.81254    1.000
    N1086    N        0.17710    0.19273    0.79712    1.000
    Si1087   Si       0.20862    0.16997    0.77468    1.000
    N1088    N        0.21463    0.19968    0.85328    1.000
    Si1089   Si       0.17404    0.20507    0.83908    1.000
    Si1090   Si       0.17081    0.21836    0.76134    1.000
    N1091    N        0.21376    0.08828    0.96746    1.000
    Si1092   Si       0.18514    0.11628    0.98291    1.000
    N1093    N        0.21059    0.02404    0.95306    1.000
    Si1094   Si       0.19582    0.05210    0.98411    1.000
    Si1095   Si       0.20009    0.03816    0.91202    1.000
    N1096    N        0.21655    0.23266    0.94704    1.000
    Si1097   Si       0.20364    0.19159    0.95285    1.000
    N1098    N        0.19750    0.16994    0.91571    1.000
    Si1099   Si       0.22826    0.16883    0.88118    1.000
    Si1100   Si       0.20505    0.34214    0.03050    1.000
    N1101    N        0.20418    0.35946    0.06921    1.000
    N1102    N        0.19926    0.28170    0.10235    1.000
    Si1103   Si       0.21871    0.27231    0.06480    1.000
    Si1104   Si       0.17714    0.27966    0.00171    1.000
    N1105    N        0.16787    0.31866    0.01977    1.000
    N1106    N        0.18401    0.43860    0.04334    1.000
    Si1107   Si       0.17419    0.47896    0.05909    1.000
    N1108    N        0.21675    0.48999    0.05899    1.000
    N1109    N        0.20705    0.32529    0.17035    1.000
    Si1110   Si       0.20286    0.36160    0.19727    1.000
    N1111    N        0.18559    0.35884    0.23628    1.000
    Si1112   Si       0.20598    0.28476    0.14761    1.000
    N1113    N        0.17229    0.29303    0.22663    1.000
    N1114    N        0.21936    0.37875    0.13495    1.000
    Si1115   Si       0.18192    0.43856    0.19002    1.000
    N1116    N        0.17484    0.39372    0.18378    1.000
    N1117    N        0.17459    0.44440    0.14838    1.000
    Si1118   Si       0.18103    0.40063    0.14215    1.000
    Si1119   Si       0.18475    0.48352    0.13465    1.000
    Si1120   Si       0.20725    0.31697    0.29704    1.000
    N1121    N        0.20599    0.27399    0.28955    1.000
    Si1122   Si       0.20881    0.37786    0.26679    1.000
    N1123    N        0.16825    0.32924    0.29100    1.000
    N1124    N        0.21846    0.32401    0.33899    1.000
    Si1125   Si       0.18490    0.25981    0.25125    1.000
    Si1126   Si       0.19039    0.33988    0.36951    1.000
    N1127    N        0.19982    0.46516    0.29130    1.000
    N1128    N        0.18242    0.39688    0.29660    1.000
    Si1129   Si       0.22012    0.49968    0.27371    1.000
    Si1130   Si       0.16761    0.43735    0.30009    1.000
    Si1131   Si       0.18208    0.47601    0.36828    1.000
    Si1132   Si       0.18553    0.26060    0.37630    1.000
    N1133    N        0.19491    0.36447    0.46857    1.000
    N1134    N        0.20710    0.36980    0.39574    1.000
    N1135    N        0.17459    0.30256    0.38511    1.000
    Si1136   Si       0.18421    0.38099    0.42970    1.000
    Si1137   Si       0.16836    0.45483    0.44265    1.000
    N1138    N        0.22209    0.47268    0.38474    1.000
    Si1139   Si       0.21526    0.40287    0.47872    1.000
    N1140    N        0.19349    0.48882    0.45274    1.000
    N1141    N        0.19436    0.42052    0.44397    1.000
    N1142    N        0.20306    0.34843    0.54189    1.000
    Si1143   Si       0.19049    0.30817    0.55404    1.000
    N1144    N        0.18069    0.29939    0.50350    1.000
    Si1145   Si       0.17289    0.34715    0.61151    1.000
    Si1146   Si       0.20349    0.33679    0.49978    1.000
    N1147    N        0.17879    0.38582    0.59186    1.000
    Si1148   Si       0.21044    0.39124    0.56055    1.000
    N1149    N        0.21899    0.41041    0.52106    1.000
    N1150    N        0.21184    0.43457    0.57595    1.000
    N1151    N        0.22339    0.48272    0.51514    1.000
    Si1152   Si       0.22491    0.43125    0.61828    1.000
    Si1153   Si       0.16626    0.42775    0.59346    1.000
    Si1154   Si       0.20634    0.29278    0.74278    1.000
    N1155    N        0.20480    0.32898    0.63789    1.000
    N1156    N        0.20208    0.29545    0.69870    1.000
    Si1157   Si       0.20136    0.33585    0.68064    1.000
    Si1158   Si       0.21255    0.26255    0.67280    1.000
    N1159    N        0.19193    0.48420    0.67517    1.000
    Si1160   Si       0.17740    0.42225    0.73955    1.000
    N1161    N        0.18413    0.43447    0.63420    1.000
    Si1162   Si       0.21590    0.49829    0.64129    1.000
    N1163    N        0.20391    0.42001    0.70160    1.000
    Si1164   Si       0.17669    0.44400    0.67612    1.000
    N1165    N        0.19516    0.36728    0.81666    1.000
    N1166    N        0.19662    0.33460    0.75560    1.000
    Si1167   Si       0.17503    0.28412    0.86567    1.000
    N1168    N        0.17850    0.26346    0.76090    1.000
    Si1169   Si       0.21757    0.36335    0.77986    1.000
    N1170    N        0.20629    0.31636    0.87165    1.000
    Si1171   Si       0.21417    0.44209    0.78754    1.000
    Si1172   Si       0.20558    0.46913    0.85640    1.000
    N1173    N        0.17819    0.45776    0.76946    1.000
    N1174    N        0.21242    0.43475    0.83091    1.000
    Si1175   Si       0.21942    0.39293    0.84242    1.000
    N1176    N        0.21352    0.40444    0.76510    1.000
    Si1177   Si       0.17122    0.49786    0.75437    1.000
    N1178    N        0.22226    0.50532    0.83720    1.000
    N1179    N        0.17396    0.27898    0.91197    1.000
    N1180    N        0.17893    0.35591    0.93795    1.000
    Si1181   Si       0.19208    0.35105    0.89619    1.000
    N1182    N        0.20963    0.29069    0.97337    1.000
    Si1183   Si       0.21117    0.27333    0.93264    1.000
    N1184    N        0.22058    0.38283    0.88440    1.000
    N1185    N        0.21991    0.36448    0.99666    1.000
    Si1186   Si       0.19441    0.38592    0.96868    1.000
    N1187    N        0.22070    0.46475    0.89686    1.000
    N1188    N        0.19112    0.47337    0.96668    1.000
    N1189    N        0.22011    0.41454    0.94919    1.000
    Si1190   Si       0.17612    0.50472    0.99213    1.000
    Si1191   Si       0.18444    0.47246    0.92319    1.000
    Si1192   Si       0.18087    0.58447    0.02760    1.000
    N1193    N        0.21020    0.56430    0.05169    1.000
    N1194    N        0.19099    0.58009    0.11470    1.000
    N1195    N        0.20806    0.53013    0.00116    1.000
    Si1196   Si       0.16867    0.61460    0.09766    1.000
    N1197    N        0.16688    0.61908    0.05072    1.000
    N1198    N        0.19692    0.64745    0.09491    1.000
    Si1199   Si       0.20041    0.74500    0.00852    1.000
    Si1200   Si       0.18991    0.65839    0.05210    1.000
    Si1201   Si       0.20024    0.71799    0.09982    1.000
    N1202    N        0.18012    0.69938    0.06136    1.000
    N1203    N        0.17453    0.66360    0.00062    1.000
    N1204    N        0.17002    0.74976    0.10531    1.000
    N1205    N        0.17976    0.51515    0.16364    1.000
    Si1206   Si       0.21338    0.60534    0.21866    1.000
    Si1207   Si       0.20697    0.52972    0.19496    1.000
    N1208    N        0.20130    0.57458    0.19012    1.000
    Si1209   Si       0.17771    0.58611    0.15780    1.000
    N1210    N        0.19909    0.51476    0.23784    1.000
    N1211    N        0.17130    0.63039    0.15273    1.000
    N1212    N        0.20607    0.64937    0.21856    1.000
    Si1213   Si       0.20101    0.65736    0.13616    1.000
    Si1214   Si       0.16708    0.66040    0.23823    1.000
    N1215    N        0.18852    0.69861    0.13659    1.000
    Si1216   Si       0.19388    0.54851    0.33448    1.000
    Si1217   Si       0.18979    0.61214    0.36105    1.000
    N1218    N        0.20593    0.58923    0.25823    1.000
    N1219    N        0.17822    0.51535    0.35373    1.000
    N1220    N        0.21779    0.53475    0.30027    1.000
    N1221    N        0.21931    0.57627    0.36069    1.000
    N1222    N        0.21904    0.62922    0.32626    1.000
    N1223    N        0.16862    0.58145    0.31584    1.000
    Si1224   Si       0.16695    0.59623    0.27577    1.000
    Si1225   Si       0.17916    0.72590    0.32676    1.000
    N1226    N        0.20650    0.69294    0.32763    1.000
    Si1227   Si       0.18920    0.65662    0.31040    1.000
    Si1228   Si       0.18944    0.73074    0.25115    1.000
    N1229    N        0.19187    0.75408    0.29351    1.000
    N1230    N        0.18458    0.75507    0.36005    1.000
    N1231    N        0.16610    0.65107    0.34782    1.000
    Si1232   Si       0.20035    0.67335    0.36997    1.000
    N1233    N        0.16824    0.63991    0.27805    1.000
    N1234    N        0.21184    0.54582    0.48734    1.000
    Si1235   Si       0.21104    0.56490    0.44661    1.000
    N1236    N        0.17488    0.58930    0.43996    1.000
    Si1237   Si       0.18495    0.63196    0.43374    1.000
    N1238    N        0.22295    0.53462    0.41627    1.000
    Si1239   Si       0.19453    0.50649    0.49284    1.000
    N1240    N        0.17791    0.70142    0.39399    1.000
    N1241    N        0.21413    0.63761    0.46553    1.000
    Si1242   Si       0.19100    0.74154    0.40178    1.000
    N1243    N        0.20593    0.63588    0.39435    1.000
    N1244    N        0.17368    0.75774    0.44037    1.000
    N1245    N        0.19640    0.56096    0.55512    1.000
    Si1246   Si       0.20813    0.58273    0.59204    1.000
    N1247    N        0.18759    0.51339    0.61216    1.000
    N1248    N        0.20531    0.62836    0.59809    1.000
    N1249    N        0.16945    0.58072    0.61484    1.000
    Si1250   Si       0.20705    0.63673    0.50818    1.000
    Si1251   Si       0.18504    0.68494    0.54375    1.000
    N1252    N        0.18775    0.72618    0.52923    1.000
    N1253    N        0.19211    0.69496    0.58653    1.000
    N1254    N        0.16818    0.64565    0.52699    1.000
    Si1255   Si       0.22562    0.73528    0.50662    1.000
    Si1256   Si       0.22243    0.66895    0.60597    1.000
    Si1257   Si       0.16933    0.62348    0.62225    1.000
    N1258    N        0.17374    0.55541    0.69626    1.000
    Si1259   Si       0.20080    0.52301    0.69471    1.000
    Si1260   Si       0.18970    0.59181    0.71181    1.000
    N1261    N        0.21143    0.50717    0.73567    1.000
    N1262    N        0.18476    0.72779    0.67189    1.000
    Si1263   Si       0.22043    0.64391    0.67327    1.000
    Si1264   Si       0.20844    0.71311    0.70413    1.000
    N1265    N        0.20921    0.66872    0.70866    1.000
    Si1266   Si       0.16667    0.65794    0.69834    1.000
    N1267    N        0.19536    0.73961    0.73641    1.000
    N1268    N        0.17895    0.64590    0.65794    1.000
    Si1269   Si       0.19718    0.60037    0.78595    1.000
    Si1270   Si       0.21199    0.54656    0.84511    1.000
    Si1271   Si       0.21606    0.54257    0.76797    1.000
    N1272    N        0.17340    0.53217    0.77953    1.000
    N1273    N        0.21933    0.57260    0.81093    1.000
    N1274    N        0.20830    0.57873    0.74770    1.000
    N1275    N        0.16744    0.54673    0.84538    1.000
    N1276    N        0.21278    0.64013    0.77759    1.000
    N1277    N        0.18191    0.65144    0.83851    1.000
    Si1278   Si       0.20259    0.67090    0.80656    1.000
    Si1279   Si       0.18677    0.73968    0.77907    1.000
    N1280    N        0.17336    0.70072    0.79310    1.000
    N1281    N        0.20474    0.56113    0.93708    1.000
    N1282    N        0.19052    0.60914    0.89215    1.000
    Si1283   Si       0.21801    0.56348    0.97770    1.000
    N1284    N        0.19353    0.59846    0.98971    1.000
    Si1285   Si       0.22442    0.58677    0.90922    1.000
    Si1286   Si       0.22101    0.74099    0.95105    1.000
    N1287    N        0.22349    0.71522    0.98602    1.000
    Si1288   Si       0.19180    0.65021    0.87917    1.000
    Si1289   Si       0.17755    0.63275    0.96724    1.000
    N1290    N        0.20971    0.65397    0.94864    1.000
    Si1291   Si       0.22169    0.66967    0.99052    1.000
    N1292    N        0.20314    0.73146    0.91155    1.000
    N1293    N        0.19498    0.87476    0.09409    1.000
    N1294    N        0.20129    0.76676    0.04611    1.000
    N1295    N        0.16841    0.85848    0.03039    1.000
    Si1296   Si       0.19647    0.86567    0.00021    1.000
    Si1297   Si       0.16528    0.85379    0.07281    1.000
    Si1298   Si       0.16600    0.77445    0.06860    1.000
    Si1299   Si       0.20702    0.00729    0.03915    1.000
    N1300    N        0.20986    0.92915    0.05249    1.000
    Si1301   Si       0.16893    0.94391    0.06223    1.000
    N1302    N        0.16960    0.98513    0.04517    1.000
    Si1303   Si       0.22357    0.93720    0.01376    1.000
    N1304    N        0.18232    0.76575    0.22557    1.000
    N1305    N        0.20174    0.78270    0.15557    1.000
    Si1306   Si       0.21210    0.77582    0.19728    1.000
    Si1307   Si       0.21349    0.87977    0.13585    1.000
    Si1308   Si       0.18414    0.88807    0.19248    1.000
    N1309    N        0.18104    0.92566    0.21374    1.000
    Si1310   Si       0.17123    0.96925    0.13560    1.000
    N1311    N        0.17168    0.89038    0.15210    1.000
    Si1312   Si       0.20818    0.95743    0.20236    1.000
    N1313    N        0.20662    0.96761    0.16066    1.000
    N1314    N        0.18082    0.98628    0.22263    1.000
    N1315    N        0.20740    0.82606    0.31065    1.000
    Si1316   Si       0.18025    0.79556    0.29812    1.000
    Si1317   Si       0.21176    0.86940    0.30560    1.000
    N1318    N        0.19865    0.88069    0.26485    1.000
    N1319    N        0.18781    0.94553    0.28407    1.000
    N1320    N        0.18499    0.97183    0.34904    1.000
    N1321    N        0.20399    0.90237    0.33275    1.000
    Si1322   Si       0.20909    0.00184    0.32600    1.000
    Si1323   Si       0.17357    0.93535    0.32297    1.000
    Si1324   Si       0.20223    0.92156    0.25278    1.000
    Si1325   Si       0.22328    0.89147    0.37056    1.000
    Si1326   Si       0.22099    0.82025    0.49371    1.000
    Si1327   Si       0.21419    0.85754    0.43204    1.000
    N1328    N        0.20033    0.86024    0.38970    1.000
    N1329    N        0.21821    0.81954    0.44954    1.000
    Si1330   Si       0.21244    0.77596    0.45068    1.000
    N1331    N        0.21616    0.77593    0.49509    1.000
    Si1332   Si       0.18002    0.97908    0.39240    1.000
    N1333    N        0.22004    0.98715    0.40714    1.000
    N1334    N        0.21074    0.92243    0.39717    1.000
    Si1335   Si       0.17488    0.91137    0.42127    1.000
    N1336    N        0.19014    0.88558    0.45298    1.000
    Si1337   Si       0.19859    0.88980    0.49658    1.000
    N1338    N        0.19146    0.84765    0.50936    1.000
    N1339    N        0.17278    0.83228    0.61948    1.000
    N1340    N        0.17455    0.76104    0.61262    1.000
    N1341    N        0.19949    0.88504    0.58186    1.000
    N1342    N        0.22901    0.97510    0.50279    1.000
    N1343    N        0.17340    0.92407    0.50318    1.000
    Si1344   Si       0.19788    0.95571    0.52548    1.000
    N1345    N        0.21793    0.95264    0.56525    1.000
    Si1346   Si       0.22495    0.97615    0.60013    1.000
    Si1347   Si       0.17213    0.83760    0.66363    1.000
    Si1348   Si       0.22006    0.85075    0.72434    1.000
    N1349    N        0.19701    0.85916    0.68956    1.000
    N1350    N        0.18342    0.79393    0.67530    1.000
    Si1351   Si       0.19028    0.78197    0.72027    1.000
    Si1352   Si       0.19815    0.76343    0.64746    1.000
    N1353    N        0.21775    0.80838    0.73986    1.000
    Si1354   Si       0.20368    0.97056    0.67575    1.000
    N1355    N        0.22176    0.95396    0.63691    1.000
    N1356    N        0.17757    0.84503    0.81443    1.000
    N1357    N        0.20670    0.87541    0.75707    1.000
    Si1358   Si       0.21605    0.85719    0.79718    1.000
    N1359    N        0.19611    0.92496    0.79874    1.000
    Si1360   Si       0.17701    0.90898    0.76479    1.000
    Si1361   Si       0.18046    0.93359    0.83749    1.000
    Si1362   Si       0.17079    0.00144    0.84610    1.000
    N1363    N        0.19342    0.85306    0.88164    1.000
    N1364    N        0.21009    0.77549    0.97870    1.000
    Si1365   Si       0.17854    0.80674    0.97073    1.000
    Si1366   Si       0.21064    0.81780    0.90316    1.000
    N1367    N        0.17768    0.80251    0.92773    1.000
    N1368    N        0.16759    0.85132    0.96948    1.000
    Si1369   Si       0.20993    0.91668    0.95029    1.000
    N1370    N        0.20406    0.93202    0.87534    1.000
    Si1371   Si       0.18258    0.89415    0.88910    1.000
    N1372    N        0.22194    0.95659    0.93972    1.000
    N1373    N        0.17189    0.90878    0.92855    1.000
    N1374    N        0.19985    0.00618    0.88108    1.000
    N1375    N        0.20484    0.90683    0.99196    1.000
    Si1376   Si       0.21642    0.96732    0.89671    1.000
    N1377    N        0.24315    0.09789    0.11808    1.000
    N1378    N        0.24750    0.17561    0.03857    1.000
    N1379    N        0.23284    0.16736    0.10698    1.000
    Si1380   Si       0.26693    0.17904    0.07735    1.000
    N1381    N        0.26360    0.25376    0.00421    1.000
    Si1382   Si       0.24868    0.15983    0.99958    1.000
    Si1383   Si       0.26343    0.13570    0.11944    1.000
    Si1384   Si       0.25704    0.06829    0.14590    1.000
    Si1385   Si       0.26293    0.02003    0.22469    1.000
    N1386    N        0.25540    0.08733    0.18602    1.000
    N1387    N        0.23196    0.03427    0.14070    1.000
    N1388    N        0.22309    0.03848    0.22137    1.000
    Si1389   Si       0.22789    0.22101    0.19838    1.000
    N1390    N        0.27765    0.14204    0.15691    1.000
    N1391    N        0.27209    0.21712    0.18665    1.000
    Si1392   Si       0.26838    0.17430    0.18738    1.000
    N1393    N        0.28435    0.14856    0.21797    1.000
    N1394    N        0.26070    0.06035    0.30051    1.000
    N1395    N        0.24008    0.10546    0.34270    1.000
    Si1396   Si       0.27375    0.10090    0.31391    1.000
    Si1397   Si       0.27448    0.01972    0.29679    1.000
    N1398    N        0.25831    0.12604    0.27869    1.000
    N1399    N        0.26457    0.19627    0.26772    1.000
    N1400    N        0.26881    0.24830    0.30778    1.000
    Si1401   Si       0.22758    0.24772    0.31640    1.000
    N1402    N        0.25792    0.16967    0.36474    1.000
    Si1403   Si       0.22677    0.13875    0.36693    1.000
    N1404    N        0.22547    0.25462    0.36136    1.000
    N1405    N        0.25721    0.08944    0.46509    1.000
    Si1406   Si       0.26847    0.05123    0.48344    1.000
    Si1407   Si       0.24644    0.02095    0.41556    1.000
    N1408    N        0.25993    0.01775    0.45711    1.000
    Si1409   Si       0.25066    0.09077    0.42185    1.000
    N1410    N        0.27696    0.01542    0.38434    1.000
    N1411    N        0.22514    0.05737    0.41137    1.000
    N1412    N        0.22381    0.12714    0.41086    1.000
    Si1413   Si       0.22575    0.11538    0.48467    1.000
    N1414    N        0.23998    0.25145    0.43157    1.000
    Si1415   Si       0.25742    0.25615    0.38893    1.000
    Si1416   Si       0.23403    0.16168    0.43263    1.000
    N1417    N        0.27543    0.16988    0.43036    1.000
    Si1418   Si       0.26181    0.25789    0.46856    1.000
    N1419    N        0.23074    0.15476    0.47696    1.000
    N1420    N        0.25221    0.05419    0.52382    1.000
    N1421    N        0.26703    0.04285    0.59134    1.000
    Si1422   Si       0.22733    0.05114    0.61167    1.000
    Si1423   Si       0.28414    0.01290    0.61563    1.000
    N1424    N        0.22567    0.11657    0.52949    1.000
    Si1425   Si       0.23265    0.15131    0.55746    1.000
    N1426    N        0.26628    0.24232    0.57780    1.000
    N1427    N        0.27436    0.16244    0.54952    1.000
    Si1428   Si       0.24666    0.22690    0.61349    1.000
    N1429    N        0.23171    0.14051    0.60283    1.000
    Si1430   Si       0.24028    0.03686    0.68007    1.000
    N1431    N        0.26592    0.04393    0.71630    1.000
    N1432    N        0.22658    0.06797    0.65247    1.000
    N1433    N        0.26607    0.01534    0.65476    1.000
    N1434    N        0.26979    0.19548    0.63034    1.000
    N1435    N        0.26989    0.13706    0.66603    1.000
    Si1436   Si       0.23183    0.19886    0.70814    1.000
    N1437    N        0.26187    0.17428    0.72747    1.000
    N1438    N        0.24079    0.24024    0.69929    1.000
    Si1439   Si       0.24554    0.16111    0.64157    1.000
    Si1440   Si       0.25815    0.13641    0.70690    1.000
    Si1441   Si       0.25824    0.04118    0.75912    1.000
    N1442    N        0.25659    0.02332    0.83369    1.000
    Si1443   Si       0.22412    0.10055    0.74401    1.000
    N1444    N        0.26710    0.11104    0.74058    1.000
    N1445    N        0.22206    0.06354    0.76672    1.000
    N1446    N        0.22563    0.12841    0.86427    1.000
    N1447    N        0.24741    0.17698    0.79391    1.000
    Si1448   Si       0.24761    0.20804    0.82312    1.000
    N1449    N        0.23767    0.24538    0.80471    1.000
    Si1450   Si       0.28131    0.16598    0.76891    1.000
    N1451    N        0.28798    0.20761    0.83834    1.000
    N1452    N        0.27294    0.11088    0.91729    1.000
    Si1453   Si       0.25604    0.09401    0.95351    1.000
    Si1454   Si       0.25366    0.09822    0.88036    1.000
    N1455    N        0.27224    0.13084    0.97712    1.000
    N1456    N        0.23082    0.06209    0.89462    1.000
    N1457    N        0.24880    0.18695    0.96507    1.000
    Si1458   Si       0.25524    0.22865    0.96750    1.000
    N1459    N        0.26639    0.17523    0.89821    1.000
    Si1460   Si       0.27396    0.16025    0.94041    1.000
    N1461    N        0.26414    0.34804    0.10592    1.000
    Si1462   Si       0.26690    0.31728    0.07134    1.000
    N1463    N        0.26121    0.27452    0.07946    1.000
    N1464    N        0.23243    0.31046    0.03944    1.000
    Si1465   Si       0.24489    0.29348    0.00059    1.000
    Si1466   Si       0.23380    0.37868    0.09363    1.000
    N1467    N        0.24685    0.43904    0.01242    1.000
    N1468    N        0.24535    0.41665    0.07851    1.000
    Si1469   Si       0.24481    0.49571    0.09331    1.000
    N1470    N        0.28154    0.47293    0.09408    1.000
    Si1471   Si       0.22728    0.44424    0.05003    1.000
    N1472    N        0.28009    0.33648    0.16591    1.000
    Si1473   Si       0.24015    0.33925    0.14561    1.000
    N1474    N        0.24389    0.37793    0.20512    1.000
    N1475    N        0.24883    0.28808    0.14745    1.000
    N1476    N        0.22455    0.44653    0.19521    1.000
    Si1477   Si       0.24711    0.47482    0.16965    1.000
    N1478    N        0.22726    0.48477    0.13154    1.000
    Si1479   Si       0.24676    0.41783    0.21896    1.000
    Si1480   Si       0.26047    0.32354    0.34855    1.000
    N1481    N        0.23525    0.34469    0.27948    1.000
    N1482    N        0.26597    0.36610    0.35689    1.000
    Si1483   Si       0.27881    0.34296    0.27966    1.000
    Si1484   Si       0.23900    0.44297    0.29189    1.000
    N1485    N        0.25534    0.43183    0.33065    1.000
    N1486    N        0.25953    0.47602    0.27133    1.000
    N1487    N        0.23436    0.41275    0.26044    1.000
    Si1488   Si       0.25808    0.45218    0.37100    1.000
    N1489    N        0.26393    0.35143    0.42725    1.000
    Si1490   Si       0.26997    0.36072    0.46823    1.000
    N1491    N        0.27138    0.29668    0.38233    1.000
    Si1492   Si       0.24951    0.37877    0.39566    1.000
    N1493    N        0.28292    0.29436    0.45810    1.000
    N1494    N        0.26107    0.47449    0.43760    1.000
    N1495    N        0.25778    0.40380    0.46754    1.000
    N1496    N        0.26317    0.41923    0.39864    1.000
    Si1497   Si       0.27609    0.43240    0.43928    1.000
    Si1498   Si       0.22638    0.49295    0.42309    1.000
    Si1499   Si       0.24827    0.34019    0.55074    1.000
    N1500    N        0.24921    0.37074    0.57913    1.000
    N1501    N        0.25122    0.27284    0.51043    1.000
    Si1502   Si       0.24167    0.26545    0.55279    1.000
    N1503    N        0.22993    0.30239    0.57382    1.000
    Si1504   Si       0.26708    0.37059    0.61897    1.000
    Si1505   Si       0.23731    0.30548    0.61786    1.000
    N1506    N        0.24856    0.33960    0.49868    1.000
    Si1507   Si       0.28180    0.30702    0.50145    1.000
    N1508    N        0.27257    0.46198    0.54605    1.000
    Si1509   Si       0.26391    0.49889    0.52050    1.000
    Si1510   Si       0.23244    0.44887    0.54059    1.000
    N1511    N        0.27287    0.32776    0.62926    1.000
    N1512    N        0.23678    0.35539    0.69776    1.000
    Si1513   Si       0.26542    0.33600    0.72446    1.000
    Si1514   Si       0.26884    0.27008    0.71570    1.000
    N1515    N        0.23476    0.26636    0.63636    1.000
    N1516    N        0.27803    0.30488    0.69251    1.000
    N1517    N        0.26689    0.41407    0.71245    1.000
    Si1518   Si       0.25165    0.49188    0.74511    1.000
    N1519    N        0.27499    0.48967    0.70948    1.000
    N1520    N        0.24767    0.46831    0.62828    1.000
    N1521    N        0.24231    0.39979    0.64168    1.000
    Si1522   Si       0.23607    0.39765    0.68539    1.000
    N1523    N        0.25442    0.30859    0.82458    1.000
    Si1524   Si       0.25940    0.28134    0.79122    1.000
    N1525    N        0.25918    0.35927    0.76454    1.000
    Si1526   Si       0.27506    0.34629    0.83147    1.000
    N1527    N        0.25052    0.28992    0.74846    1.000
    Si1528   Si       0.24890    0.30438    0.87157    1.000
    N1529    N        0.26129    0.38828    0.83073    1.000
    N1530    N        0.25133    0.45394    0.76616    1.000
    Si1531   Si       0.26094    0.41244    0.75470    1.000
    N1532    N        0.28268    0.46524    0.82278    1.000
    Si1533   Si       0.25987    0.50078    0.81661    1.000
    N1534    N        0.27806    0.33685    0.87561    1.000
    N1535    N        0.24727    0.28724    0.91205    1.000
    N1536    N        0.26758    0.36652    0.93746    1.000
    Si1537   Si       0.26011    0.36163    0.98117    1.000
    N1538    N        0.27444    0.32164    0.98642    1.000
    Si1539   Si       0.22915    0.44953    0.97324    1.000
    Si1540   Si       0.26202    0.46967    0.91207    1.000
    N1541    N        0.27933    0.42901    0.90910    1.000
    Si1542   Si       0.24454    0.40062    0.91577    1.000
    N1543    N        0.25821    0.47626    0.95497    1.000
    Si1544   Si       0.28318    0.49436    0.98531    1.000
    N1545    N        0.25310    0.53641    0.08442    1.000
    N1546    N        0.25685    0.59327    0.11433    1.000
    Si1547   Si       0.23234    0.52770    0.03927    1.000
    N1548    N        0.26730    0.51203    0.02044    1.000
    Si1549   Si       0.22571    0.57073    0.09213    1.000
    N1550    N        0.27763    0.60667    0.04874    1.000
    Si1551   Si       0.27740    0.70820    0.09104    1.000
    N1552    N        0.26616    0.66538    0.08829    1.000
    Si1553   Si       0.26703    0.64981    0.04749    1.000
    N1554    N        0.24209    0.73126    0.08734    1.000
    N1555    N        0.22810    0.65660    0.03240    1.000
    N1556    N        0.25654    0.60961    0.21365    1.000
    N1557    N        0.24770    0.51324    0.19134    1.000
    Si1558   Si       0.28089    0.53004    0.21257    1.000
    Si1559   Si       0.26449    0.63846    0.12265    1.000
    N1560    N        0.24610    0.74714    0.20044    1.000
    N1561    N        0.27370    0.67874    0.21880    1.000
    Si1562   Si       0.24629    0.65003    0.19777    1.000
    N1563    N        0.23965    0.65079    0.15683    1.000
    Si1564   Si       0.25809    0.71685    0.22868    1.000
    N1565    N        0.26544    0.57951    0.30502    1.000
    Si1566   Si       0.23785    0.56536    0.27485    1.000
    N1567    N        0.27427    0.61894    0.36732    1.000
    Si1568   Si       0.24924    0.59965    0.33860    1.000
    N1569    N        0.26659    0.54911    0.24971    1.000
    Si1570   Si       0.25125    0.69522    0.33498    1.000
    N1571    N        0.25721    0.73816    0.32673    1.000
    Si1572   Si       0.23628    0.74852    0.29017    1.000
    N1573    N        0.28017    0.67696    0.30844    1.000
    N1574    N        0.22953    0.71781    0.26052    1.000
    Si1575   Si       0.25522    0.62175    0.45572    1.000
    Si1576   Si       0.24526    0.56453    0.39524    1.000
    N1577    N        0.24516    0.59061    0.42901    1.000
    N1578    N        0.24329    0.68195    0.37584    1.000
    N1579    N        0.27454    0.65136    0.42726    1.000
    N1580    N        0.24940    0.71984    0.47357    1.000
    Si1581   Si       0.24985    0.64408    0.39371    1.000
    N1582    N        0.25951    0.53856    0.53766    1.000
    N1583    N        0.24737    0.56568    0.60477    1.000
    Si1584   Si       0.27586    0.55986    0.57211    1.000
    Si1585   Si       0.27670    0.61950    0.52342    1.000
    N1586    N        0.23370    0.60623    0.52045    1.000
    Si1587   Si       0.22487    0.56377    0.52292    1.000
    Si1588   Si       0.26062    0.69019    0.54800    1.000
    N1589    N        0.25717    0.69413    0.59032    1.000
    N1590    N        0.25806    0.73063    0.53748    1.000
    Si1591   Si       0.26323    0.73379    0.60739    1.000
    N1592    N        0.22533    0.67378    0.53009    1.000
    N1593    N        0.23217    0.53166    0.66321    1.000
    N1594    N        0.27278    0.55285    0.71956    1.000
    Si1595   Si       0.26093    0.59057    0.70287    1.000
    Si1596   Si       0.26274    0.55462    0.64225    1.000
    N1597    N        0.26621    0.61829    0.73648    1.000
    N1598    N        0.22404    0.60496    0.68688    1.000
    N1599    N        0.24405    0.66246    0.64452    1.000
    Si1600   Si       0.28110    0.69881    0.71134    1.000
    Si1601   Si       0.26792    0.75352    0.66737    1.000
    N1602    N        0.25096    0.72478    0.69653    1.000
    Si1603   Si       0.23388    0.65005    0.74075    1.000
    N1604    N        0.25490    0.51974    0.77620    1.000
    N1605    N        0.28404    0.53457    0.83432    1.000
    N1606    N        0.25316    0.72885    0.86286    1.000
    N1607    N        0.24157    0.68517    0.81880    1.000
    Si1608   Si       0.25806    0.74033    0.82188    1.000
    Si1609   Si       0.25875    0.68663    0.85922    1.000
    Si1610   Si       0.27234    0.68441    0.78894    1.000
    N1611    N        0.26203    0.68197    0.74821    1.000
    N1612    N        0.22406    0.75358    0.79520    1.000
    Si1613   Si       0.27831    0.53861    0.87665    1.000
    N1614    N        0.23770    0.55624    0.87816    1.000
    N1615    N        0.25633    0.61085    0.92582    1.000
    N1616    N        0.26008    0.57125    0.98236    1.000
    Si1617   Si       0.27109    0.61024    0.96748    1.000
    Si1618   Si       0.24979    0.65602    0.92771    1.000
    N1619    N        0.23435    0.66337    0.88663    1.000
    Si1620   Si       0.23540    0.75469    0.89166    1.000
    N1621    N        0.28259    0.68503    0.92431    1.000
    N1622    N        0.26268    0.65313    0.97761    1.000
    N1623    N        0.25417    0.86780    0.06240    1.000
    Si1624   Si       0.26317    0.84127    0.09745    1.000
    N1625    N        0.24822    0.79948    0.09148    1.000
    Si1626   Si       0.24303    0.76736    0.06180    1.000
    N1627    N        0.26515    0.77058    0.02373    1.000
    Si1628   Si       0.28248    0.86566    0.03163    1.000
    N1629    N        0.23049    0.83821    0.99084    1.000
    N1630    N        0.27525    0.96452    0.06109    1.000
    Si1631   Si       0.26629    0.99718    0.08709    1.000
    Si1632   Si       0.27103    0.97760    0.01927    1.000
    N1633    N        0.23988    0.90903    0.11686    1.000
    N1634    N        0.26619    0.94070    0.99782    1.000
    Si1635   Si       0.22681    0.89820    0.07571    1.000
    N1636    N        0.22872    0.98459    0.00813    1.000
    Si1637   Si       0.27721    0.78101    0.19833    1.000
    N1638    N        0.23800    0.81024    0.20409    1.000
    N1639    N        0.23894    0.84276    0.13567    1.000
    Si1640   Si       0.23502    0.79885    0.13412    1.000
    Si1641   Si       0.24846    0.84340    0.17883    1.000
    N1642    N        0.27137    0.78225    0.15171    1.000
    N1643    N        0.22595    0.88084    0.18475    1.000
    N1644    N        0.27895    0.87691    0.23533    1.000
    N1645    N        0.23964    0.93673    0.22899    1.000
    N1646    N        0.27667    0.92679    0.17124    1.000
    Si1647   Si       0.24031    0.99404    0.15578    1.000
    N1648    N        0.26762    0.99420    0.18962    1.000
    N1649    N        0.26789    0.97690    0.12705    1.000
    Si1650   Si       0.25881    0.90401    0.20523    1.000
    Si1651   Si       0.27257    0.93330    0.12784    1.000
    Si1652   Si       0.24973    0.81998    0.30450    1.000
    N1653    N        0.25285    0.78612    0.27794    1.000
    N1654    N        0.26770    0.80687    0.34019    1.000
    N1655    N        0.25538    0.86219    0.29864    1.000
    N1656    N        0.26580    0.87812    0.36982    1.000
    Si1657   Si       0.28006    0.83515    0.36863    1.000
    N1658    N        0.26526    0.99498    0.26075    1.000
    N1659    N        0.25193    0.99620    0.32667    1.000
    Si1660   Si       0.27185    0.95166    0.25549    1.000
    Si1661   Si       0.28103    0.98189    0.35664    1.000
    N1662    N        0.28546    0.92577    0.28871    1.000
    Si1663   Si       0.26749    0.77484    0.40928    1.000
    Si1664   Si       0.26893    0.83245    0.44689    1.000
    N1665    N        0.26789    0.81819    0.40568    1.000
    N1666    N        0.25445    0.87329    0.43718    1.000
    N1667    N        0.26177    0.83121    0.49289    1.000
    N1668    N        0.22908    0.75720    0.41469    1.000
    Si1669   Si       0.26120    0.97685    0.47519    1.000
    Si1670   Si       0.27708    0.90796    0.44683    1.000
    N1671    N        0.27136    0.94425    0.37712    1.000
    Si1672   Si       0.24087    0.95019    0.40856    1.000
    N1673    N        0.25676    0.94363    0.44764    1.000
    N1674    N        0.27635    0.86460    0.54781    1.000
    Si1675   Si       0.27399    0.89870    0.52240    1.000
    N1676    N        0.26495    0.90438    0.59765    1.000
    N1677    N        0.27028    0.97354    0.60225    1.000
    Si1678   Si       0.23224    0.91020    0.56795    1.000
    N1679    N        0.23132    0.90642    0.52199    1.000
    N1680    N        0.26273    0.85025    0.71489    1.000
    Si1681   Si       0.27591    0.80839    0.72137    1.000
    N1682    N        0.23970    0.76158    0.63499    1.000
    N1683    N        0.28442    0.93549    0.66383    1.000
    N1684    N        0.22412    0.95816    0.71118    1.000
    Si1685   Si       0.25644    0.96595    0.73862    1.000
    Si1686   Si       0.26154    0.93612    0.62699    1.000
    Si1687   Si       0.25636    0.80829    0.84120    1.000
    N1688    N        0.23757    0.82038    0.80355    1.000
    Si1689   Si       0.23978    0.78797    0.77469    1.000
    N1690    N        0.27446    0.77710    0.75314    1.000
    N1691    N        0.27837    0.84238    0.85938    1.000
    Si1692   Si       0.28089    0.88075    0.83975    1.000
    N1693    N        0.24666    0.88478    0.81361    1.000
    Si1694   Si       0.23643    0.99287    0.80834    1.000
    Si1695   Si       0.23968    0.92338    0.79498    1.000
    N1696    N        0.24795    0.95400    0.82184    1.000
    N1697    N        0.26501    0.92971    0.76117    1.000
    N1698    N        0.25094    0.99856    0.76825    1.000
    Si1699   Si       0.27464    0.94810    0.85611    1.000
    N1700    N        0.22952    0.79217    0.87259    1.000
    N1701    N        0.24451    0.82109    0.93025    1.000
    Si1702   Si       0.25850    0.85376    0.95638    1.000
    Si1703   Si       0.27822    0.79575    0.93317    1.000
    Si1704   Si       0.24734    0.79748    0.99324    1.000
    N1705    N        0.25733    0.75478    0.93095    1.000
    N1706    N        0.24116    0.88979    0.93664    1.000
    Si1707   Si       0.27679    0.90240    0.91637    1.000
    Si1708   Si       0.23236    0.98954    0.96503    1.000
    N1709    N        0.27899    0.90792    0.87370    1.000
    N1710    N        0.25947    0.97081    0.88824    1.000
    N1711    N        0.27259    0.99722    0.95567    1.000
    Si1712   Si       0.31032    0.03895    0.04589    1.000
    N1713    N        0.30515    0.07897    0.03569    1.000
    Si1714   Si       0.31792    0.04950    0.11134    1.000
    Si1715   Si       0.31450    0.11327    0.06322    1.000
    N1716    N        0.33599    0.08626    0.09387    1.000
    N1717    N        0.29105    0.03230    0.08352    1.000
    N1718    N        0.29354    0.01283    0.01590    1.000
    Si1719   Si       0.30585    0.10380    0.99859    1.000
    Si1720   Si       0.29681    0.25475    0.09423    1.000
    N1721    N        0.32009    0.13931    0.02661    1.000
    Si1722   Si       0.30483    0.24649    0.02249    1.000
    N1723    N        0.28965    0.14159    0.08438    1.000
    N1724    N        0.31770    0.21009    0.00239    1.000
    N1725    N        0.28828    0.21299    0.09301    1.000
    N1726    N        0.32371    0.25869    0.05926    1.000
    Si1727   Si       0.33940    0.17529    0.01552    1.000
    N1728    N        0.29976    0.05712    0.14874    1.000
    Si1729   Si       0.31828    0.05639    0.18930    1.000
    N1730    N        0.32748    0.09801    0.19315    1.000
    N1731    N        0.30042    0.04453    0.22611    1.000
    Si1732   Si       0.28823    0.11585    0.19001    1.000
    Si1733   Si       0.31032    0.23535    0.20244    1.000
    N1734    N        0.32396    0.21279    0.23677    1.000
    N1735    N        0.31608    0.10572    0.32075    1.000
    N1736    N        0.31597    0.02380    0.29339    1.000
    Si1737   Si       0.33122    0.03146    0.25316    1.000
    N1738    N        0.33817    0.03303    0.35893    1.000
    N1739    N        0.32657    0.21572    0.30324    1.000
    Si1740   Si       0.29696    0.22554    0.27301    1.000
    N1741    N        0.32867    0.15073    0.26972    1.000
    Si1742   Si       0.28513    0.15465    0.26037    1.000
    N1743    N        0.31472    0.04415    0.48735    1.000
    N1744    N        0.32877    0.10561    0.45151    1.000
    Si1745   Si       0.30691    0.04800    0.38893    1.000
    Si1746   Si       0.32049    0.11367    0.40883    1.000
    N1747    N        0.28787    0.08393    0.40310    1.000
    N1748    N        0.33307    0.03911    0.42303    1.000
    Si1749   Si       0.33908    0.06310    0.45672    1.000
    N1750    N        0.33332    0.19786    0.43550    1.000
    Si1751   Si       0.28847    0.18239    0.39159    1.000
    Si1752   Si       0.32721    0.23672    0.41546    1.000
    Si1753   Si       0.30018    0.18658    0.46149    1.000
    N1754    N        0.28821    0.22606    0.39276    1.000
    N1755    N        0.31320    0.16031    0.49351    1.000
    N1756    N        0.29044    0.22747    0.47633    1.000
    N1757    N        0.31880    0.15005    0.38614    1.000
    N1758    N        0.31232    0.08254    0.55161    1.000
    N1759    N        0.32646    0.01639    0.62084    1.000
    Si1760   Si       0.28530    0.04910    0.55260    1.000
    N1761    N        0.30183    0.00704    0.54504    1.000
    Si1762   Si       0.30812    0.23701    0.57080    1.000
    N1763    N        0.31552    0.21925    0.53332    1.000
    Si1764   Si       0.31175    0.17555    0.53378    1.000
    N1765    N        0.32949    0.20875    0.59888    1.000
    Si1766   Si       0.32637    0.24188    0.49821    1.000
    Si1767   Si       0.33578    0.04550    0.65118    1.000
    N1768    N        0.31372    0.08094    0.66284    1.000
    N1769    N        0.32400    0.08347    0.73110    1.000
    Si1770   Si       0.31159    0.12543    0.66304    1.000
    Si1771   Si       0.30568    0.05861    0.70103    1.000
    N1772    N        0.33004    0.02409    0.68948    1.000
    N1773    N        0.33546    0.14127    0.69642    1.000
    N1774    N        0.32832    0.14844    0.62973    1.000
    Si1775   Si       0.31241    0.19004    0.63391    1.000
    Si1776   Si       0.32915    0.24941    0.68245    1.000
    N1777    N        0.30752    0.24995    0.71979    1.000
    N1778    N        0.32683    0.20664    0.67181    1.000
    N1779    N        0.32551    0.03069    0.84360    1.000
    Si1780   Si       0.31186    0.11535    0.83105    1.000
    Si1781   Si       0.30029    0.09707    0.76678    1.000
    Si1782   Si       0.29143    0.05004    0.82557    1.000
    N1783    N        0.28770    0.05949    0.78444    1.000
    N1784    N        0.29784    0.13172    0.79305    1.000
    N1785    N        0.28083    0.08755    0.84750    1.000
    N1786    N        0.31532    0.19412    0.76589    1.000
    Si1787   Si       0.32053    0.23739    0.76023    1.000
    Si1788   Si       0.30461    0.24969    0.83202    1.000
    N1789    N        0.31581    0.14097    0.86535    1.000
    Si1790   Si       0.30104    0.18268    0.87007    1.000
    N1791    N        0.29897    0.26130    0.79047    1.000
    Si1792   Si       0.31267    0.12342    0.90627    1.000
    Si1793   Si       0.29728    0.02732    0.97445    1.000
    N1794    N        0.34559    0.09749    0.91285    1.000
    N1795    N        0.28446    0.06793    0.97247    1.000
    N1796    N        0.31719    0.15890    0.93421    1.000
    N1797    N        0.29044    0.24197    0.94187    1.000
    N1798    N        0.33401    0.20536    0.88765    1.000
    Si1799   Si       0.32714    0.23455    0.96782    1.000
    N1800    N        0.30475    0.32910    0.05509    1.000
    Si1801   Si       0.31878    0.35560    0.02282    1.000
    N1802    N        0.33520    0.35266    0.12103    1.000
    Si1803   Si       0.34121    0.34133    0.07886    1.000
    N1804    N        0.29268    0.38311    0.00270    1.000
    Si1805   Si       0.29061    0.42781    0.01502    1.000
    N1806    N        0.31077    0.42624    0.05386    1.000
    Si1807   Si       0.28634    0.43145    0.08946    1.000
    N1808    N        0.31157    0.46343    0.99946    1.000
    Si1809   Si       0.28477    0.36170    0.20192    1.000
    N1810    N        0.31137    0.27244    0.12952    1.000
    N1811    N        0.29494    0.33565    0.23808    1.000
    Si1812   Si       0.29534    0.36440    0.13429    1.000
    N1813    N        0.30788    0.27802    0.19825    1.000
    Si1814   Si       0.32040    0.29886    0.23509    1.000
    Si1815   Si       0.28949    0.29274    0.16115    1.000
    N1816    N        0.28648    0.42854    0.21262    1.000
    Si1817   Si       0.30559    0.42684    0.16911    1.000
    N1818    N        0.30921    0.49964    0.22312    1.000
    N1819    N        0.31601    0.38428    0.17721    1.000
    N1820    N        0.28941    0.46592    0.15811    1.000
    N1821    N        0.29591    0.40796    0.12431    1.000
    Si1822   Si       0.32622    0.42746    0.22877    1.000
    Si1823   Si       0.30455    0.49144    0.12738    1.000
    N1824    N        0.30989    0.27065    0.26621    1.000
    N1825    N        0.28884    0.31758    0.31373    1.000
    Si1826   Si       0.33309    0.32462    0.32622    1.000
    Si1827   Si       0.30405    0.27352    0.30819    1.000
    N1828    N        0.29771    0.38018    0.29556    1.000
    Si1829   Si       0.33788    0.38004    0.28026    1.000
    Si1830   Si       0.28445    0.39999    0.33582    1.000
    N1831    N        0.32885    0.45234    0.26542    1.000
    N1832    N        0.32032    0.41972    0.35353    1.000
    Si1833   Si       0.30051    0.48659    0.26505    1.000
    Si1834   Si       0.33279    0.46010    0.36133    1.000
    N1835    N        0.29514    0.47752    0.37416    1.000
    Si1836   Si       0.32913    0.30497    0.46069    1.000
    N1837    N        0.32594    0.32424    0.41926    1.000
    N1838    N        0.30959    0.34411    0.48298    1.000
    N1839    N        0.34263    0.26504    0.44640    1.000
    Si1840   Si       0.28327    0.31532    0.41791    1.000
    N1841    N        0.34151    0.38869    0.41700    1.000
    N1842    N        0.31630    0.44432    0.44988    1.000
    N1843    N        0.29685    0.50214    0.49177    1.000
    Si1844   Si       0.30166    0.48584    0.45277    1.000
    Si1845   Si       0.32973    0.30601    0.54640    1.000
    N1846    N        0.32327    0.28537    0.50530    1.000
    N1847    N        0.33207    0.27340    0.57697    1.000
    N1848    N        0.28810    0.32016    0.54530    1.000
    Si1849   Si       0.31313    0.45835    0.55955    1.000
    N1850    N        0.31832    0.47102    0.60207    1.000
    N1851    N        0.33568    0.41918    0.55638    1.000
    N1852    N        0.30593    0.38899    0.61940    1.000
    Si1853   Si       0.33804    0.39623    0.59281    1.000
    N1854    N        0.34210    0.48696    0.53951    1.000
    N1855    N        0.32171    0.27176    0.64685    1.000
    Si1856   Si       0.30282    0.31091    0.65548    1.000
    N1857    N        0.30636    0.35387    0.72661    1.000
    N1858    N        0.33666    0.33614    0.66231    1.000
    Si1859   Si       0.34111    0.35630    0.69919    1.000
    N1860    N        0.32414    0.44115    0.72990    1.000
    Si1861   Si       0.29067    0.44835    0.70439    1.000
    Si1862   Si       0.29023    0.47591    0.63469    1.000
    N1863    N        0.30526    0.44764    0.66359    1.000
    Si1864   Si       0.32466    0.41151    0.64999    1.000
    N1865    N        0.31155    0.34245    0.80891    1.000
    Si1866   Si       0.30337    0.36196    0.76965    1.000
    N1867    N        0.29011    0.26825    0.86785    1.000
    Si1868   Si       0.31034    0.47346    0.85650    1.000
    N1869    N        0.32117    0.43003    0.85481    1.000
    N1870    N        0.29788    0.40802    0.77946    1.000
    Si1871   Si       0.28907    0.42248    0.81925    1.000
    Si1872   Si       0.33957    0.41593    0.76328    1.000
    N1873    N        0.34384    0.49336    0.84198    1.000
    Si1874   Si       0.29830    0.34718    0.91194    1.000
    Si1875   Si       0.31399    0.30799    0.97238    1.000
    N1876    N        0.30839    0.30874    0.92946    1.000
    N1877    N        0.32903    0.37715    0.91068    1.000
    N1878    N        0.32629    0.27108    0.98977    1.000
    Si1879   Si       0.28955    0.27339    0.91032    1.000
    N1880    N        0.34130    0.33448    0.99304    1.000
    Si1881   Si       0.31955    0.41631    0.89707    1.000
    N1882    N        0.29087    0.49675    0.88948    1.000
    N1883    N        0.32308    0.57054    0.08475    1.000
    Si1884   Si       0.31736    0.59310    0.04682    1.000
    N1885    N        0.32673    0.55965    0.01904    1.000
    Si1886   Si       0.28513    0.56080    0.10318    1.000
    N1887    N        0.30056    0.67105    0.02808    1.000
    N1888    N        0.30472    0.72883    0.06174    1.000
    Si1889   Si       0.30223    0.74748    0.02098    1.000
    Si1890   Si       0.34079    0.73254    0.08790    1.000
    Si1891   Si       0.33868    0.67102    0.05089    1.000
    N1892    N        0.29818    0.53386    0.13385    1.000
    Si1893   Si       0.29641    0.59715    0.22212    1.000
    N1894    N        0.30558    0.56368    0.19654    1.000
    Si1895   Si       0.32608    0.55201    0.16133    1.000
    Si1896   Si       0.33454    0.62521    0.16343    1.000
    N1897    N        0.31826    0.62912    0.20238    1.000
    N1898    N        0.31592    0.75652    0.18525    1.000
    N1899    N        0.33819    0.69920    0.20708    1.000
    N1900    N        0.30555    0.64231    0.13476    1.000
    Si1901   Si       0.33056    0.74001    0.22198    1.000
    Si1902   Si       0.30183    0.75066    0.14594    1.000
    N1903    N        0.29883    0.71078    0.13057    1.000
    Si1904   Si       0.31572    0.66625    0.22446    1.000
    Si1905   Si       0.32919    0.67878    0.12904    1.000
    N1906    N        0.31551    0.59409    0.26136    1.000
    Si1907   Si       0.30074    0.56276    0.28674    1.000
    N1908    N        0.31325    0.52210    0.28894    1.000
    N1909    N        0.33528    0.57295    0.31622    1.000
    Si1910   Si       0.31764    0.63051    0.36159    1.000
    N1911    N        0.33582    0.63762    0.32183    1.000
    Si1912   Si       0.32040    0.67238    0.30076    1.000
    N1913    N        0.33682    0.66247    0.26181    1.000
    N1914    N        0.34363    0.70587    0.31807    1.000
    N1915    N        0.29379    0.73852    0.24683    1.000
    N1916    N        0.32456    0.51267    0.42715    1.000
    Si1917   Si       0.33032    0.59164    0.48693    1.000
    Si1918   Si       0.30955    0.51772    0.38529    1.000
    N1919    N        0.33686    0.59935    0.38330    1.000
    N1920    N        0.28770    0.60941    0.48271    1.000
    N1921    N        0.28181    0.54814    0.37846    1.000
    N1922    N        0.32675    0.66934    0.38057    1.000
    Si1923   Si       0.31374    0.67280    0.42173    1.000
    Si1924   Si       0.32900    0.74512    0.40269    1.000
    N1925    N        0.31501    0.71488    0.43247    1.000
    N1926    N        0.34308    0.64713    0.44293    1.000
    Si1927   Si       0.28893    0.73271    0.46284    1.000
    N1928    N        0.29366    0.75726    0.38019    1.000
    N1929    N        0.31585    0.54252    0.58212    1.000
    N1930    N        0.29422    0.59609    0.55578    1.000
    Si1931   Si       0.33125    0.57372    0.55631    1.000
    Si1932   Si       0.33616    0.51514    0.50783    1.000
    N1933    N        0.33602    0.55863    0.51548    1.000
    Si1934   Si       0.32941    0.52487    0.61958    1.000
    Si1935   Si       0.33243    0.66167    0.52773    1.000
    N1936    N        0.28980    0.66041    0.53494    1.000
    Si1937   Si       0.29592    0.75251    0.53979    1.000
    N1938    N        0.31228    0.73253    0.50092    1.000
    N1939    N        0.28727    0.58273    0.66604    1.000
    Si1940   Si       0.33140    0.57691    0.67364    1.000
    N1941    N        0.29256    0.51875    0.64469    1.000
    N1942    N        0.33139    0.54089    0.69858    1.000
    Si1943   Si       0.29223    0.52642    0.68930    1.000
    N1944    N        0.33083    0.63076    0.73706    1.000
    Si1945   Si       0.28492    0.67958    0.64462    1.000
    N1946    N        0.31603    0.65831    0.62223    1.000
    N1947    N        0.31583    0.72232    0.72786    1.000
    N1948    N        0.28948    0.72179    0.64311    1.000
    Si1949   Si       0.32898    0.73709    0.63589    1.000
    Si1950   Si       0.33352    0.64711    0.69632    1.000
    N1951    N        0.29698    0.66781    0.68602    1.000
    Si1952   Si       0.30689    0.57046    0.82029    1.000
    Si1953   Si       0.29911    0.62121    0.76285    1.000
    N1954    N        0.30919    0.60376    0.84765    1.000
    N1955    N        0.29896    0.58021    0.77927    1.000
    N1956    N        0.32599    0.52002    0.76125    1.000
    Si1957   Si       0.28907    0.54402    0.75874    1.000
    N1958    N        0.28840    0.72406    0.79309    1.000
    Si1959   Si       0.31704    0.64557    0.83642    1.000
    Si1960   Si       0.30596    0.74827    0.76134    1.000
    N1961    N        0.30055    0.65090    0.79562    1.000
    N1962    N        0.30028    0.67610    0.86075    1.000
    N1963    N        0.31322    0.55789    0.89677    1.000
    N1964    N        0.30691    0.52364    0.95863    1.000
    N1965    N        0.31416    0.59990    0.96556    1.000
    Si1966   Si       0.32194    0.51994    0.91808    1.000
    Si1967   Si       0.30455    0.55898    0.98285    1.000
    Si1968   Si       0.33602    0.59211    0.88084    1.000
    N1969    N        0.34085    0.62890    0.90672    1.000
    Si1970   Si       0.28968    0.72688    0.94162    1.000
    N1971    N        0.31705    0.73570    0.90961    1.000
    N1972    N        0.29830    0.72215    0.98356    1.000
    N1973    N        0.33604    0.66515    0.97011    1.000
    Si1974   Si       0.31821    0.69292    0.89648    1.000
    Si1975   Si       0.29721    0.67873    0.98674    1.000
    N1976    N        0.30676    0.84492    0.10759    1.000
    N1977    N        0.31012    0.83192    0.03710    1.000
    Si1978   Si       0.33245    0.84438    0.07295    1.000
    Si1979   Si       0.32088    0.81212    0.99970    1.000
    N1980    N        0.34312    0.77460    0.01329    1.000
    Si1981   Si       0.30639    0.93517    0.06655    1.000
    N1982    N        0.30809    0.92361    0.10794    1.000
    N1983    N        0.30505    0.90270    0.03912    1.000
    N1984    N        0.34275    0.95067    0.04957    1.000
    Si1985   Si       0.29819    0.91214    0.99596    1.000
    N1986    N        0.33379    0.76309    0.11759    1.000
    Si1987   Si       0.30497    0.84543    0.21943    1.000
    N1988    N        0.28969    0.85069    0.17879    1.000
    Si1989   Si       0.32059    0.85661    0.14863    1.000
    N1990    N        0.30131    0.80220    0.23211    1.000
    N1991    N        0.30574    0.94941    0.22849    1.000
    N1992    N        0.33522    0.96433    0.16177    1.000
    Si1993   Si       0.29756    0.96012    0.18531    1.000
    N1994    N        0.31501    0.76713    0.30411    1.000
    N1995    N        0.32818    0.86479    0.29176    1.000
    Si1996   Si       0.29443    0.77656    0.26774    1.000
    N1997    N        0.32203    0.83733    0.36451    1.000
    Si1998   Si       0.33612    0.86487    0.33485    1.000
    Si1999   Si       0.28721    0.76711    0.33833    1.000
    Si2000   Si       0.28696    0.88293    0.27811    1.000
    N2001    N        0.32824    0.90614    0.34817    1.000
    N2002    N        0.31798    0.97301    0.33565    1.000
    Si2003   Si       0.31946    0.93431    0.31493    1.000
    Si2004   Si       0.32681    0.86886    0.47738    1.000
    N2005    N        0.31236    0.83655    0.45349    1.000
    Si2006   Si       0.32430    0.79590    0.45352    1.000
    N2007    N        0.28669    0.77334    0.44895    1.000
    Si2008   Si       0.29640    0.90790    0.37968    1.000
    N2009    N        0.31428    0.91073    0.41974    1.000
    N2010    N        0.29745    0.90018    0.48573    1.000
    N2011    N        0.30594    0.97333    0.48480    1.000
    N2012    N        0.30281    0.79481    0.53632    1.000
    N2013    N        0.30341    0.83803    0.60873    1.000
    Si2014   Si       0.31357    0.79790    0.59592    1.000
    Si2015   Si       0.29557    0.87544    0.58693    1.000
    Si2016   Si       0.29289    0.83381    0.52388    1.000
    N2017    N        0.33361    0.85162    0.51740    1.000
    N2018    N        0.29154    0.76072    0.58567    1.000
    N2019    N        0.33861    0.95757    0.58763    1.000
    N2020    N        0.33776    0.88653    0.57582    1.000
    Si2021   Si       0.29782    0.96801    0.56893    1.000
    Si2022   Si       0.31579    0.93554    0.50523    1.000
    N2023    N        0.29019    0.93572    0.54150    1.000
    Si2024   Si       0.32439    0.00580    0.50806    1.000
    N2025    N        0.31705    0.82432    0.73471    1.000
    N2026    N        0.32932    0.78117    0.63432    1.000
    N2027    N        0.32064    0.84481    0.67440    1.000
    Si2028   Si       0.30429    0.86066    0.71110    1.000
    Si2029   Si       0.32744    0.80032    0.67323    1.000
    Si2030   Si       0.33287    0.85697    0.63476    1.000
    N2031    N        0.28790    0.78683    0.68516    1.000
    Si2032   Si       0.32325    0.92355    0.67436    1.000
    N2033    N        0.33466    0.89994    0.63986    1.000
    Si2034   Si       0.30681    0.93304    0.74626    1.000
    N2035    N        0.31595    0.90256    0.71662    1.000
    Si2036   Si       0.33347    0.98578    0.70862    1.000
    N2037    N        0.29783    0.96950    0.72426    1.000
    Si2038   Si       0.32702    0.78319    0.81660    1.000
    N2039    N        0.33525    0.82370    0.80464    1.000
    N2040    N        0.34333    0.76769    0.77632    1.000
    N2041    N        0.28533    0.77734    0.82742    1.000
    Si2042   Si       0.33500    0.93404    0.81673    1.000
    N2043    N        0.31806    0.89321    0.82040    1.000
    N2044    N        0.31468    0.95969    0.84494    1.000
    N2045    N        0.33588    0.94538    0.77619    1.000
    Si2046   Si       0.33248    0.99484    0.86701    1.000
    N2047    N        0.29806    0.86383    0.92539    1.000
    Si2048   Si       0.32828    0.86735    0.95862    1.000
    Si2049   Si       0.30788    0.83940    0.89050    1.000
    N2050    N        0.31218    0.80111    0.90822    1.000
    Si2051   Si       0.33700    0.77019    0.89094    1.000
    N2052    N        0.28789    0.87138    0.98643    1.000
    N2053    N        0.28768    0.80462    0.97317    1.000
    N2054    N        0.29829    0.93336    0.93624    1.000
    N2055    N        0.33912    0.91491    0.98781    1.000
    Si2056   Si       0.28718    0.97372    0.92280    1.000
    N2057    N        0.32175    0.99770    0.90904    1.000
    Si2058   Si       0.37615    0.02008    0.08299    1.000
    Si2059   Si       0.37724    0.09000    0.11115    1.000
    N2060    N        0.35399    0.02693    0.04639    1.000
    Si2061   Si       0.37225    0.02459    0.00552    1.000
    N2062    N        0.39475    0.12628    0.08950    1.000
    N2063    N        0.34830    0.01724    0.11589    1.000
    N2064    N        0.40042    0.05364    0.09958    1.000
    N2065    N        0.35787    0.18817    0.05292    1.000
    N2066    N        0.37185    0.24337    0.10709    1.000
    N2067    N        0.39042    0.25406    0.04137    1.000
    Si2068   Si       0.39438    0.21022    0.04921    1.000
    Si2069   Si       0.36555    0.12149    0.19210    1.000
    N2070    N        0.37959    0.11200    0.14853    1.000
    Si2071   Si       0.37945    0.02320    0.21733    1.000
    N2072    N        0.35212    0.02925    0.18375    1.000
    N2073    N        0.39963    0.11067    0.21836    1.000
    N2074    N        0.36632    0.05565    0.24682    1.000
    N2075    N        0.35989    0.16294    0.20351    1.000
    Si2076   Si       0.37377    0.19745    0.17986    1.000
    Si2077   Si       0.35012    0.17692    0.24262    1.000
    N2078    N        0.39021    0.18506    0.14205    1.000
    N2079    N        0.34198    0.22579    0.17131    1.000
    N2080    N        0.38683    0.10889    0.29201    1.000
    Si2081   Si       0.39368    0.08698    0.25412    1.000
    Si2082   Si       0.34851    0.12753    0.30085    1.000
    Si2083   Si       0.34243    0.00829    0.32401    1.000
    Si2084   Si       0.37076    0.25578    0.35065    1.000
    N2085    N        0.35843    0.15993    0.33139    1.000
    Si2086   Si       0.36272    0.19632    0.30735    1.000
    N2087    N        0.38235    0.18911    0.26789    1.000
    N2088    N        0.39034    0.22112    0.32983    1.000
    Si2089   Si       0.36148    0.14491    0.37108    1.000
    N2090    N        0.40048    0.04725    0.39698    1.000
    Si2091   Si       0.36396    0.02710    0.39329    1.000
    N2092    N        0.38127    0.06216    0.46564    1.000
    N2093    N        0.35805    0.10204    0.39014    1.000
    Si2094   Si       0.34628    0.13332    0.47937    1.000
    N2095    N        0.39660    0.22259    0.43091    1.000
    Si2096   Si       0.37398    0.18670    0.43016    1.000
    N2097    N        0.37690    0.15586    0.46060    1.000
    N2098    N        0.38784    0.16391    0.39668    1.000
    N2099    N        0.35208    0.23610    0.38168    1.000
    Si2100   Si       0.38378    0.25460    0.45726    1.000
    N2101    N        0.36603    0.09860    0.58721    1.000
    N2102    N        0.36626    0.11058    0.51116    1.000
    Si2103   Si       0.38711    0.05952    0.59840    1.000
    N2104    N        0.38079    0.02168    0.57609    1.000
    Si2105   Si       0.39823    0.02300    0.53493    1.000
    Si2106   Si       0.34516    0.11100    0.55181    1.000
    Si2107   Si       0.36654    0.12947    0.61744    1.000
    Si2108   Si       0.39946    0.08672    0.49584    1.000
    N2109    N        0.39286    0.21482    0.56077    1.000
    Si2110   Si       0.36296    0.18652    0.57977    1.000
    N2111    N        0.39311    0.16385    0.60574    1.000
    N2112    N        0.34328    0.15470    0.55406    1.000
    N2113    N        0.37098    0.23417    0.49332    1.000
    N2114    N        0.38764    0.11952    0.65373    1.000
    Si2115   Si       0.35323    0.11231    0.72717    1.000
    N2116    N        0.37550    0.05721    0.64143    1.000
    N2117    N        0.38791    0.08706    0.71548    1.000
    Si2118   Si       0.39429    0.08018    0.67310    1.000
    N2119    N        0.37230    0.18556    0.72867    1.000
    Si2120   Si       0.39520    0.25311    0.72937    1.000
    Si2121   Si       0.35473    0.17960    0.68946    1.000
    N2122    N        0.39340    0.18477    0.66996    1.000
    N2123    N        0.37402    0.25140    0.69006    1.000
    N2124    N        0.38556    0.23768    0.62371    1.000
    Si2125   Si       0.39935    0.22764    0.66312    1.000
    Si2126   Si       0.36342    0.04510    0.82319    1.000
    Si2127   Si       0.37976    0.11275    0.79965    1.000
    N2128    N        0.34532    0.09059    0.81822    1.000
    N2129    N        0.35923    0.13233    0.76604    1.000
    Si2130   Si       0.35593    0.17592    0.76696    1.000
    N2131    N        0.38146    0.19629    0.79499    1.000
    Si2132   Si       0.37623    0.23852    0.80161    1.000
    N2133    N        0.36412    0.24865    0.76160    1.000
    N2134    N        0.34915    0.24546    0.83304    1.000
    N2135    N        0.40314    0.21801    0.86763    1.000
    Si2136   Si       0.37814    0.12049    0.98501    1.000
    Si2137   Si       0.38175    0.11872    0.90923    1.000
    N2138    N        0.38005    0.04133    0.92259    1.000
    Si2139   Si       0.35035    0.06808    0.94583    1.000
    N2140    N        0.34328    0.09726    0.97847    1.000
    N2141    N        0.34297    0.02633    0.96813    1.000
    Si2142   Si       0.39451    0.24512    0.93148    1.000
    Si2143   Si       0.36208    0.23332    0.87104    1.000
    N2144    N        0.38116    0.16076    0.90318    1.000
    N2145    N        0.37162    0.16374    0.98559    1.000
    N2146    N        0.36065    0.21634    0.94856    1.000
    Si2147   Si       0.34973    0.18432    0.92067    1.000
    N2148    N        0.37218    0.31043    0.08179    1.000
    Si2149   Si       0.36481    0.26956    0.07272    1.000
    N2150    N        0.34889    0.37309    0.04933    1.000
    Si2151   Si       0.37107    0.47738    0.08168    1.000
    N2152    N        0.37618    0.43475    0.07933    1.000
    N2153    N        0.35919    0.49717    0.04349    1.000
    N2154    N        0.36974    0.43327    0.01207    1.000
    Si2155   Si       0.35300    0.41479    0.04754    1.000
    Si2156   Si       0.35327    0.47303    0.00702    1.000
    N2157    N        0.34493    0.48774    0.11341    1.000
    Si2158   Si       0.39631    0.41258    0.11028    1.000
    N2159    N        0.37647    0.35172    0.18750    1.000
    N2160    N        0.37626    0.28713    0.16167    1.000
    Si2161   Si       0.38499    0.31005    0.19819    1.000
    N2162    N        0.36501    0.30426    0.23590    1.000
    Si2163   Si       0.35314    0.37169    0.15720    1.000
    Si2164   Si       0.38335    0.37618    0.22273    1.000
    Si2165   Si       0.35004    0.25803    0.14245    1.000
    N2166    N        0.34574    0.44922    0.19302    1.000
    Si2167   Si       0.38033    0.50606    0.13849    1.000
    N2168    N        0.34719    0.39103    0.24048    1.000
    N2169    N        0.37189    0.40923    0.14505    1.000
    N2170    N        0.38555    0.49860    0.22708    1.000
    Si2171   Si       0.34851    0.48981    0.20608    1.000
    Si2172   Si       0.38564    0.43677    0.17663    1.000
    Si2173   Si       0.38337    0.32076    0.27205    1.000
    N2174    N        0.34961    0.34014    0.28950    1.000
    N2175    N        0.34550    0.35332    0.35480    1.000
    N2176    N        0.34220    0.28039    0.32840    1.000
    Si2177   Si       0.35616    0.39532    0.34727    1.000
    Si2178   Si       0.36049    0.44762    0.29396    1.000
    N2179    N        0.36228    0.40577    0.30566    1.000
    N2180    N        0.34507    0.47730    0.32193    1.000
    Si2181   Si       0.39751    0.50116    0.26789    1.000
    N2182    N        0.39246    0.34480    0.40723    1.000
    N2183    N        0.36869    0.32492    0.47035    1.000
    Si2184   Si       0.35121    0.35231    0.39783    1.000
    Si2185   Si       0.40117    0.32282    0.44376    1.000
    Si2186   Si       0.40106    0.43650    0.39557    1.000
    N2187    N        0.35479    0.39491    0.48643    1.000
    Si2188   Si       0.35123    0.41735    0.44885    1.000
    N2189    N        0.39403    0.40196    0.36970    1.000
    N2190    N        0.37108    0.46706    0.38115    1.000
    N2191    N        0.39146    0.43496    0.43884    1.000
    N2192    N        0.36255    0.36076    0.59521    1.000
    Si2193   Si       0.38794    0.35139    0.56170    1.000
    N2194    N        0.35529    0.33742    0.53637    1.000
    Si2195   Si       0.35477    0.26787    0.61527    1.000
    Si2196   Si       0.34868    0.35255    0.49652    1.000
    N2197    N        0.39987    0.38534    0.53792    1.000
    N2198    N        0.39152    0.46055    0.57961    1.000
    Si2199   Si       0.36719    0.41145    0.52393    1.000
    Si2200   Si       0.38378    0.47774    0.54033    1.000
    Si2201   Si       0.36042    0.46114    0.60933    1.000
    N2202    N        0.39041    0.44709    0.51101    1.000
    N2203    N        0.38096    0.30333    0.62220    1.000
    Si2204   Si       0.37026    0.34152    0.63660    1.000
    N2205    N        0.37578    0.34205    0.72067    1.000
    N2206    N        0.35913    0.41971    0.62339    1.000
    N2207    N        0.39384    0.44452    0.67459    1.000
    N2208    N        0.38419    0.42136    0.73904    1.000
    Si2209   Si       0.39683    0.41217    0.64590    1.000
    Si2210   Si       0.36054    0.43774    0.70568    1.000
    N2211    N        0.34565    0.39866    0.68505    1.000
    N2212    N        0.37504    0.48098    0.72345    1.000
    N2213    N        0.36638    0.49827    0.63083    1.000
    N2214    N        0.38653    0.32866    0.79570    1.000
    Si2215   Si       0.35457    0.35255    0.81195    1.000
    N2216    N        0.34931    0.37379    0.77253    1.000
    Si2217   Si       0.38811    0.35554    0.75909    1.000
    N2218    N        0.38912    0.33105    0.87283    1.000
    Si2219   Si       0.39919    0.37115    0.86254    1.000
    N2220    N        0.37076    0.38628    0.83501    1.000
    Si2221   Si       0.36012    0.42833    0.83474    1.000
    Si2222   Si       0.38549    0.46356    0.76502    1.000
    N2223    N        0.35775    0.44064    0.79386    1.000
    N2224    N        0.39149    0.45191    0.85330    1.000
    N2225    N        0.38391    0.50259    0.78621    1.000
    Si2226   Si       0.37876    0.49209    0.86655    1.000
    Si2227   Si       0.38184    0.34300    0.97866    1.000
    Si2228   Si       0.38303    0.30221    0.90156    1.000
    N2229    N        0.38397    0.32343    0.94076    1.000
    N2230    N        0.36438    0.26332    0.90223    1.000
    N2231    N        0.40393    0.26346    0.97207    1.000
    N2232    N        0.38230    0.38339    0.96559    1.000
    Si2233   Si       0.40174    0.40947    0.99483    1.000
    N2234    N        0.37550    0.48631    0.97025    1.000
    N2235    N        0.35829    0.50285    0.90563    1.000
    Si2236   Si       0.37614    0.47101    0.93143    1.000
    Si2237   Si       0.36525    0.39392    0.92709    1.000
    N2238    N        0.35108    0.43507    0.92185    1.000
    Si2239   Si       0.36400    0.54066    0.03632    1.000
    N2240    N        0.38590    0.56387    0.06720    1.000
    Si2241   Si       0.36252    0.57643    0.10853    1.000
    Si2242   Si       0.38417    0.60914    0.05967    1.000
    N2243    N        0.38668    0.61663    0.10270    1.000
    N2244    N        0.34492    0.62739    0.05121    1.000
    N2245    N        0.39210    0.54786    0.00255    1.000
    N2246    N        0.36704    0.69468    0.02817    1.000
    N2247    N        0.37817    0.74917    0.07120    1.000
    N2248    N        0.34400    0.68878    0.09074    1.000
    Si2249   Si       0.39898    0.71870    0.04497    1.000
    N2250    N        0.39209    0.54827    0.13142    1.000
    N2251    N        0.35194    0.51621    0.17155    1.000
    N2252    N        0.34169    0.58729    0.14519    1.000
    N2253    N        0.36289    0.66066    0.15337    1.000
    N2254    N        0.39161    0.65435    0.21603    1.000
    Si2255   Si       0.37589    0.68755    0.18976    1.000
    N2256    N        0.39529    0.72438    0.18498    1.000
    N2257    N        0.38672    0.61896    0.27883    1.000
    N2258    N        0.38470    0.52751    0.29808    1.000
    Si2259   Si       0.35295    0.57197    0.35650    1.000
    N2260    N        0.34464    0.52723    0.36276    1.000
    N2261    N        0.39557    0.57142    0.35551    1.000
    Si2262   Si       0.34532    0.52022    0.31676    1.000
    Si2263   Si       0.34633    0.60713    0.29148    1.000
    Si2264   Si       0.35622    0.69197    0.35756    1.000
    Si2265   Si       0.38109    0.65532    0.25813    1.000
    N2266    N        0.35856    0.74702    0.25440    1.000
    Si2267   Si       0.34993    0.74250    0.29711    1.000
    Si2268   Si       0.39029    0.75474    0.35484    1.000
    N2269    N        0.39133    0.75626    0.30790    1.000
    N2270    N        0.40052    0.68542    0.35701    1.000
    N2271    N        0.34831    0.57733    0.44964    1.000
    Si2272   Si       0.36007    0.53478    0.44330    1.000
    Si2273   Si       0.35476    0.61186    0.42243    1.000
    N2274    N        0.39426    0.52585    0.41585    1.000
    N2275    N        0.37025    0.51303    0.47991    1.000
    N2276    N        0.39857    0.61986    0.41017    1.000
    Si2277   Si       0.38255    0.50906    0.37749    1.000
    Si2278   Si       0.36948    0.65828    0.47769    1.000
    N2279    N        0.39565    0.68625    0.44393    1.000
    N2280    N        0.39250    0.74198    0.48776    1.000
    N2281    N        0.36008    0.73168    0.37630    1.000
    N2282    N        0.36942    0.59095    0.57093    1.000
    N2283    N        0.34568    0.62952    0.50437    1.000
    Si2284   Si       0.39655    0.62307    0.58136    1.000
    Si2285   Si       0.35468    0.73262    0.50708    1.000
    N2286    N        0.36117    0.68872    0.50706    1.000
    Si2287   Si       0.37701    0.74120    0.58234    1.000
    Si2288   Si       0.39061    0.68130    0.54265    1.000
    N2289    N        0.35657    0.66376    0.56364    1.000
    Si2290   Si       0.35338    0.67160    0.60526    1.000
    N2291    N        0.35373    0.71482    0.60742    1.000
    N2292    N        0.35213    0.74969    0.54698    1.000
    N2293    N        0.38384    0.64323    0.61892    1.000
    Si2294   Si       0.39305    0.62326    0.65636    1.000
    Si2295   Si       0.38815    0.53659    0.64189    1.000
    Si2296   Si       0.35790    0.52258    0.72874    1.000
    N2297    N        0.34912    0.55753    0.63917    1.000
    N2298    N        0.39051    0.55085    0.73808    1.000
    N2299    N        0.35490    0.61558    0.67724    1.000
    N2300    N        0.39989    0.52442    0.68204    1.000
    N2301    N        0.38725    0.73607    0.73249    1.000
    N2302    N        0.36514    0.67591    0.70984    1.000
    N2303    N        0.35576    0.73580    0.67073    1.000
    Si2304   Si       0.35587    0.71708    0.70947    1.000
    Si2305   Si       0.38631    0.55866    0.83534    1.000
    N2306    N        0.34739    0.55202    0.81866    1.000
    Si2307   Si       0.34464    0.51253    0.80109    1.000
    N2308    N        0.38968    0.63538    0.77447    1.000
    N2309    N        0.37775    0.58791    0.86645    1.000
    N2310    N        0.35988    0.65039    0.83880    1.000
    Si2311   Si       0.37430    0.73580    0.77464    1.000
    Si2312   Si       0.38693    0.66645    0.80591    1.000
    N2313    N        0.36387    0.69231    0.77959    1.000
    Si2314   Si       0.36075    0.65771    0.75214    1.000
    N2315    N        0.40240    0.74692    0.80461    1.000
    N2316    N        0.38390    0.61235    0.95604    1.000
    Si2317   Si       0.34374    0.62742    0.94926    1.000
    N2318    N        0.36195    0.69375    0.89700    1.000
    Si2319   Si       0.38247    0.72522    0.92019    1.000
    Si2320   Si       0.36791    0.69100    0.98357    1.000
    Si2321   Si       0.36767    0.65289    0.88170    1.000
    N2322    N        0.37322    0.72755    0.96236    1.000
    N2323    N        0.36393    0.81595    0.08581    1.000
    Si2324   Si       0.36655    0.78801    0.04854    1.000
    N2325    N        0.39260    0.81817    0.03127    1.000
    N2326    N        0.35874    0.87804    0.06424    1.000
    Si2327   Si       0.39155    0.90156    0.07924    1.000
    Si2328   Si       0.38343    0.96442    0.04445    1.000
    N2329    N        0.38157    0.92698    0.11430    1.000
    N2330    N        0.39513    0.98792    0.00937    1.000
    Si2331   Si       0.35077    0.90898    0.03177    1.000
    N2332    N        0.39588    0.92080    0.03717    1.000
    N2333    N        0.39905    0.98273    0.07911    1.000
    Si2334   Si       0.35836    0.79757    0.12571    1.000
    Si2335   Si       0.37522    0.82866    0.19566    1.000
    N2336    N        0.38486    0.78902    0.20697    1.000
    N2337    N        0.34908    0.85391    0.22278    1.000
    N2338    N        0.35132    0.82563    0.15726    1.000
    N2339    N        0.39698    0.77664    0.13727    1.000
    N2340    N        0.40016    0.86455    0.19108    1.000
    Si2341   Si       0.34457    0.92816    0.13585    1.000
    Si2342   Si       0.36613    0.88982    0.19867    1.000
    N2343    N        0.34200    0.89215    0.16319    1.000
    Si2344   Si       0.35830    0.00022    0.15435    1.000
    N2345    N        0.35435    0.99567    0.23974    1.000
    Si2346   Si       0.34735    0.95368    0.24114    1.000
    N2347    N        0.39961    0.98560    0.15220    1.000
    N2348    N        0.37546    0.92467    0.22353    1.000
    Si2349   Si       0.36117    0.85468    0.26502    1.000
    N2350    N        0.37816    0.86751    0.34451    1.000
    N2351    N        0.37830    0.81256    0.27436    1.000
    N2352    N        0.37563    0.79569    0.35367    1.000
    Si2353   Si       0.39035    0.80459    0.31313    1.000
    N2354    N        0.39659    0.87910    0.27269    1.000
    Si2355   Si       0.38923    0.77756    0.24716    1.000
    Si2356   Si       0.38651    0.96223    0.30283    1.000
    N2357    N        0.35094    0.94411    0.28518    1.000
    N2358    N        0.39127    0.94257    0.33998    1.000
    Si2359   Si       0.37327    0.90824    0.35703    1.000
    N2360    N        0.38438    0.00369    0.31150    1.000
    N2361    N        0.34372    0.78601    0.41558    1.000
    N2362    N        0.34969    0.78752    0.48824    1.000
    Si2363   Si       0.35328    0.81448    0.38464    1.000
    N2364    N        0.38830    0.83654    0.40479    1.000
    Si2365   Si       0.39375    0.78761    0.48403    1.000
    Si2366   Si       0.39548    0.85865    0.44184    1.000
    N2367    N        0.36334    0.88080    0.45859    1.000
    N2368    N        0.37471    0.94926    0.45761    1.000
    N2369    N        0.38147    0.98647    0.39445    1.000
    Si2370   Si       0.35464    0.91719    0.43368    1.000
    N2371    N        0.37916    0.91020    0.39933    1.000
    Si2372   Si       0.40119    0.96903    0.43005    1.000
    Si2373   Si       0.38624    0.81392    0.59913    1.000
    N2374    N        0.39219    0.77149    0.61026    1.000
    Si2375   Si       0.35082    0.79557    0.53336    1.000
    N2376    N        0.35100    0.80898    0.57503    1.000
    N2377    N        0.39437    0.80130    0.52654    1.000
    N2378    N        0.40278    0.87470    0.53491    1.000
    Si2379   Si       0.35892    0.88226    0.53699    1.000
    N2380    N        0.35502    0.92252    0.51840    1.000
    Si2381   Si       0.35919    0.99249    0.60242    1.000
    N2382    N        0.36695    0.99517    0.51611    1.000
    N2383    N        0.39428    0.91725    0.60117    1.000
    Si2384   Si       0.35220    0.91959    0.60377    1.000
    Si2385   Si       0.38163    0.95455    0.50376    1.000
    N2386    N        0.37008    0.79688    0.68584    1.000
    N2387    N        0.37524    0.84440    0.63127    1.000
    Si2388   Si       0.39793    0.82030    0.71364    1.000
    Si2389   Si       0.38474    0.76714    0.65487    1.000
    Si2390   Si       0.40191    0.87206    0.65352    1.000
    N2391    N        0.39806    0.91183    0.67387    1.000
    N2392    N        0.36620    0.99197    0.73494    1.000
    N2393    N        0.34893    0.95729    0.67800    1.000
    Si2394   Si       0.39178    0.95192    0.66439    1.000
    N2395    N        0.39272    0.98079    0.63097    1.000
    N2396    N        0.38319    0.87165    0.81483    1.000
    N2397    N        0.38740    0.82763    0.75394    1.000
    N2398    N        0.34961    0.76660    0.84846    1.000
    Si2399   Si       0.39347    0.76569    0.84532    1.000
    Si2400   Si       0.34730    0.81150    0.76387    1.000
    Si2401   Si       0.34352    0.85827    0.82755    1.000
    N2402    N        0.38010    0.94035    0.82025    1.000
    Si2403   Si       0.37020    0.97336    0.77423    1.000
    Si2404   Si       0.39579    0.98065    0.83153    1.000
    Si2405   Si       0.39865    0.90505    0.83731    1.000
    N2406    N        0.37520    0.98455    0.86986    1.000
    N2407    N        0.37210    0.00578    0.80307    1.000
    N2408    N        0.37897    0.76675    0.90485    1.000
    Si2409   Si       0.37340    0.87253    0.89903    1.000
    Si2410   Si       0.39162    0.83194    0.99040    1.000
    N2411    N        0.34937    0.83556    0.97884    1.000
    N2412    N        0.34434    0.85346    0.87273    1.000
    Si2413   Si       0.37985    0.76337    0.98821    1.000
    N2414    N        0.36909    0.95989    0.93508    1.000
    N2415    N        0.38762    0.90939    0.88155    1.000
    N2416    N        0.35590    0.88903    0.93343    1.000
    Si2417   Si       0.39022    0.95222    0.89819    1.000
    Si2418   Si       0.34266    0.92892    0.94685    1.000
    Si2419   Si       0.35668    0.00295    0.93217    1.000
    Si2420   Si       0.43229    0.07391    0.01257    1.000
    Si2421   Si       0.44388    0.05527    0.08874    1.000
    N2422    N        0.43921    0.08078    0.05584    1.000
    Si2423   Si       0.41995    0.12104    0.05520    1.000
    N2424    N        0.40119    0.10894    0.01883    1.000
    N2425    N        0.42320    0.20464    0.08079    1.000
    N2426    N        0.41736    0.20774    0.01098    1.000
    Si2427   Si       0.42001    0.25087    0.00910    1.000
    N2428    N        0.45354    0.15092    0.04838    1.000
    Si2429   Si       0.40607    0.21702    0.11747    1.000
    Si2430   Si       0.44335    0.10213    0.21945    1.000
    N2431    N        0.42015    0.01181    0.21458    1.000
    Si2432   Si       0.44899    0.02963    0.24116    1.000
    N2433    N        0.45791    0.08201    0.18259    1.000
    Si2434   Si       0.41515    0.21215    0.24958    1.000
    Si2435   Si       0.39998    0.14484    0.12758    1.000
    N2436    N        0.44290    0.13801    0.13416    1.000
    Si2437   Si       0.43836    0.22370    0.18312    1.000
    N2438    N        0.40479    0.21627    0.20706    1.000
    N2439    N        0.42747    0.24220    0.14636    1.000
    N2440    N        0.45837    0.18463    0.17929    1.000
    N2441    N        0.43687    0.06296    0.32730    1.000
    Si2442   Si       0.42427    0.10509    0.31771    1.000
    Si2443   Si       0.42500    0.02172    0.31539    1.000
    N2444    N        0.41137    0.11761    0.35748    1.000
    N2445    N        0.45119    0.01245    0.28114    1.000
    N2446    N        0.43437    0.07062    0.24999    1.000
    N2447    N        0.45425    0.13488    0.30402    1.000
    Si2448   Si       0.42945    0.23168    0.31677    1.000
    N2449    N        0.42307    0.24678    0.27474    1.000
    N2450    N        0.45613    0.19694    0.24982    1.000
    Si2451   Si       0.45350    0.01533    0.47550    1.000
    Si2452   Si       0.45416    0.09820    0.44986    1.000
    N2453    N        0.44683    0.05674    0.46336    1.000
    Si2454   Si       0.41161    0.04418    0.43876    1.000
    N2455    N        0.42944    0.10215    0.41498    1.000
    N2456    N        0.42925    0.11721    0.48090    1.000
    Si2457   Si       0.39901    0.08870    0.38667    1.000
    N2458    N        0.45280    0.16832    0.37360    1.000
    N2459    N        0.45966    0.23722    0.40522    1.000
    Si2460   Si       0.41844    0.25193    0.40773    1.000
    Si2461   Si       0.42753    0.14281    0.39665    1.000
    N2462    N        0.44051    0.16664    0.43304    1.000
    Si2463   Si       0.41940    0.15866    0.47060    1.000
    N2464    N        0.43137    0.06767    0.59752    1.000
    Si2465   Si       0.43663    0.08839    0.55891    1.000
    N2466    N        0.40942    0.06615    0.53338    1.000
    N2467    N        0.43641    0.13062    0.56388    1.000
    N2468    N        0.43667    0.00853    0.51548    1.000
    Si2469   Si       0.43452    0.15894    0.59724    1.000
    Si2470   Si       0.41601    0.22710    0.59490    1.000
    N2471    N        0.43813    0.24563    0.52019    1.000
    N2472    N        0.45118    0.20035    0.59786    1.000
    N2473    N        0.42286    0.18974    0.49811    1.000
    Si2474   Si       0.40044    0.21994    0.51818    1.000
    N2475    N        0.43712    0.07087    0.67203    1.000
    Si2476   Si       0.45270    0.05906    0.63390    1.000
    N2477    N        0.42164    0.03006    0.73669    1.000
    N2478    N        0.45415    0.09368    0.73803    1.000
    N2479    N        0.45757    0.01506    0.63695    1.000
    Si2480   Si       0.41478    0.07179    0.74524    1.000
    N2481    N        0.43587    0.14855    0.70125    1.000
    Si2482   Si       0.41503    0.18214    0.72344    1.000
    N2483    N        0.42670    0.22394    0.71625    1.000
    N2484    N        0.45261    0.13875    0.63500    1.000
    Si2485   Si       0.41770    0.15022    0.66048    1.000
    N2486    N        0.44140    0.23291    0.65476    1.000
    Si2487   Si       0.43367    0.06739    0.82272    1.000
    Si2488   Si       0.42793    0.12727    0.85487    1.000
    N2489    N        0.45646    0.10273    0.83381    1.000
    N2490    N        0.40741    0.07975    0.78781    1.000
    N2491    N        0.40011    0.04821    0.84553    1.000
    Si2492   Si       0.43366    0.23394    0.84054    1.000
    N2493    N        0.43265    0.16436    0.76028    1.000
    Si2494   Si       0.41991    0.17588    0.80067    1.000
    N2495    N        0.45182    0.20059    0.81850    1.000
    N2496    N        0.40337    0.14189    0.82305    1.000
    N2497    N        0.40424    0.04956    0.98691    1.000
    Si2498   Si       0.41747    0.03764    0.94678    1.000
    N2499    N        0.44057    0.03531    0.90459    1.000
    Si2500   Si       0.44279    0.11943    0.95578    1.000
    N2501    N        0.40665    0.09774    0.88025    1.000
    Si2502   Si       0.40592    0.05449    0.88776    1.000
    N2503    N        0.40117    0.11180    0.94791    1.000
    N2504    N        0.44325    0.16051    0.96577    1.000
    N2505    N        0.44472    0.15742    0.88140    1.000
    Si2506   Si       0.41632    0.18634    0.89417    1.000
    Si2507   Si       0.40809    0.18813    0.97176    1.000
    N2508    N        0.41758    0.20766    0.93196    1.000
    Si2509   Si       0.44880    0.31311    0.02349    1.000
    N2510    N        0.44245    0.32645    0.06373    1.000
    Si2511   Si       0.43726    0.37176    0.06093    1.000
    Si2512   Si       0.40880    0.32974    0.09270    1.000
    N2513    N        0.41231    0.37284    0.09606    1.000
    N2514    N        0.45533    0.27066    0.02456    1.000
    N2515    N        0.43452    0.31033    0.12359    1.000
    N2516    N        0.41518    0.38548    0.02650    1.000
    Si2517   Si       0.44129    0.47126    0.09692    1.000
    N2518    N        0.44958    0.45977    0.05690    1.000
    N2519    N        0.40653    0.49616    0.09992    1.000
    Si2520   Si       0.45706    0.49356    0.03329    1.000
    N2521    N        0.42796    0.30254    0.19309    1.000
    Si2522   Si       0.41953    0.28425    0.15390    1.000
    Si2523   Si       0.44675    0.41353    0.21251    1.000
    Si2524   Si       0.44742    0.46405    0.15950    1.000
    N2525    N        0.40301    0.47629    0.16698    1.000
    Si2526   Si       0.41757    0.50506    0.19935    1.000
    N2527    N        0.45640    0.48837    0.19703    1.000
    N2528    N        0.42967    0.43692    0.12277    1.000
    N2529    N        0.40477    0.41239    0.20551    1.000
    N2530    N        0.45566    0.44122    0.24456    1.000
    Si2531   Si       0.43941    0.28516    0.28472    1.000
    Si2532   Si       0.42686    0.29876    0.34287    1.000
    N2533    N        0.43619    0.33837    0.35726    1.000
    Si2534   Si       0.44839    0.35107    0.25636    1.000
    N2535    N        0.45566    0.27067    0.32292    1.000
    N2536    N        0.40724    0.30497    0.30380    1.000
    N2537    N        0.40564    0.35601    0.25546    1.000
    N2538    N        0.40579    0.27242    0.37080    1.000
    N2539    N        0.45679    0.30701    0.25306    1.000
    Si2540   Si       0.45171    0.48160    0.35426    1.000
    Si2541   Si       0.44564    0.46375    0.28081    1.000
    N2542    N        0.44157    0.50750    0.27141    1.000
    N2543    N        0.42034    0.51054    0.35098    1.000
    N2544    N        0.40115    0.46159    0.28543    1.000
    N2545    N        0.43850    0.34094    0.45701    1.000
    N2546    N        0.41769    0.28133    0.44201    1.000
    Si2547   Si       0.41869    0.36744    0.38285    1.000
    Si2548   Si       0.45589    0.38092    0.44959    1.000
    Si2549   Si       0.45994    0.30238    0.45249    1.000
    N2550    N        0.43750    0.40818    0.47875    1.000
    N2551    N        0.44975    0.38935    0.40649    1.000
    N2552    N        0.43981    0.44977    0.38179    1.000
    N2553    N        0.43582    0.48140    0.47551    1.000
    Si2554   Si       0.41397    0.44586    0.47375    1.000
    N2555    N        0.42498    0.33266    0.57579    1.000
    Si2556   Si       0.42367    0.30161    0.60567    1.000
    N2557    N        0.43616    0.26444    0.58514    1.000
    Si2558   Si       0.43765    0.39800    0.52152    1.000
    Si2559   Si       0.43096    0.44635    0.58271    1.000
    N2560    N        0.45534    0.42399    0.55158    1.000
    N2561    N        0.45424    0.48263    0.58334    1.000
    N2562    N        0.43264    0.42339    0.61902    1.000
    Si2563   Si       0.45187    0.30295    0.72466    1.000
    N2564    N        0.44870    0.31331    0.63716    1.000
    Si2565   Si       0.43887    0.34889    0.65986    1.000
    N2566    N        0.45122    0.33892    0.70116    1.000
    N2567    N        0.39942    0.36859    0.65187    1.000
    N2568    N        0.45429    0.41102    0.71383    1.000
    Si2569   Si       0.40679    0.48292    0.69336    1.000
    N2570    N        0.44866    0.48115    0.70504    1.000
    Si2571   Si       0.44729    0.36011    0.80333    1.000
    Si2572   Si       0.41568    0.29642    0.78871    1.000
    N2573    N        0.45098    0.31574    0.80595    1.000
    N2574    N        0.42444    0.37644    0.76907    1.000
    N2575    N        0.43693    0.37236    0.84150    1.000
    N2576    N        0.41297    0.25911    0.81162    1.000
    N2577    N        0.41843    0.28720    0.74492    1.000
    N2578    N        0.42639    0.44924    0.77067    1.000
    Si2579   Si       0.45681    0.47861    0.78556    1.000
    Si2580   Si       0.42524    0.41135    0.74606    1.000
    N2581    N        0.45824    0.48274    0.82867    1.000
    Si2582   Si       0.42019    0.29997    0.95251    1.000
    N2583    N        0.41986    0.27732    0.91179    1.000
    N2584    N        0.42173    0.32521    0.99049    1.000
    N2585    N        0.45408    0.35916    0.93431    1.000
    Si2586   Si       0.41786    0.43443    0.88461    1.000
    Si2587   Si       0.43574    0.39637    0.92833    1.000
    N2588    N        0.41427    0.46998    0.91117    1.000
    Si2589   Si       0.44723    0.49484    0.92085    1.000
    N2590    N        0.39934    0.39539    0.89978    1.000
    N2591    N        0.43243    0.42117    0.96501    1.000
    N2592    N        0.45703    0.41870    0.89507    1.000
    Si2593   Si       0.45745    0.45338    0.97879    1.000
    N2594    N        0.43447    0.48484    0.99675    1.000
    N2595    N        0.44699    0.52544    0.06033    1.000
    Si2596   Si       0.41820    0.54118    0.09182    1.000
    N2597    N        0.40547    0.61575    0.02311    1.000
    N2598    N        0.44706    0.56544    0.11310    1.000
    Si2599   Si       0.42093    0.65576    0.01602    1.000
    N2600    N        0.43763    0.73249    0.09830    1.000
    N2601    N        0.43002    0.68791    0.04674    1.000
    N2602    N        0.41217    0.74690    0.01230    1.000
    Si2603   Si       0.45720    0.74643    0.00823    1.000
    Si2604   Si       0.45496    0.69621    0.11076    1.000
    Si2605   Si       0.42563    0.63206    0.20498    1.000
    Si2606   Si       0.42644    0.57112    0.15316    1.000
    N2607    N        0.42646    0.54709    0.19100    1.000
    N2608    N        0.41572    0.61158    0.16689    1.000
    N2609    N        0.43520    0.60040    0.23389    1.000
    Si2610   Si       0.45734    0.56883    0.21186    1.000
    N2611    N        0.43222    0.66635    0.13215    1.000
    Si2612   Si       0.39884    0.64007    0.13736    1.000
    N2613    N        0.44077    0.57459    0.30467    1.000
    Si2614   Si       0.42721    0.60480    0.27626    1.000
    Si2615   Si       0.41399    0.54674    0.32501    1.000
    N2616    N        0.44877    0.62204    0.36196    1.000
    N2617    N        0.45254    0.63614    0.29606    1.000
    N2618    N        0.40998    0.68905    0.26885    1.000
    N2619    N        0.44683    0.71061    0.30951    1.000
    Si2620   Si       0.44010    0.70577    0.35193    1.000
    Si2621   Si       0.41759    0.72864    0.28424    1.000
    Si2622   Si       0.45281    0.67774    0.28373    1.000
    N2623    N        0.43130    0.74772    0.36278    1.000
    N2624    N        0.42999    0.75704    0.25305    1.000
    N2625    N        0.43087    0.55092    0.47110    1.000
    Si2626   Si       0.43569    0.53869    0.42819    1.000
    Si2627   Si       0.42053    0.59562    0.38232    1.000
    N2628    N        0.45018    0.57333    0.40654    1.000
    Si2629   Si       0.41247    0.51531    0.49085    1.000
    Si2630   Si       0.46270    0.75891    0.43861    1.000
    N2631    N        0.40559    0.63451    0.47774    1.000
    N2632    N        0.45623    0.65325    0.42762    1.000
    N2633    N        0.45552    0.71918    0.45445    1.000
    Si2634   Si       0.41530    0.64845    0.43764    1.000
    Si2635   Si       0.41211    0.72589    0.45344    1.000
    N2636    N        0.43541    0.60341    0.59225    1.000
    N2637    N        0.41940    0.53527    0.61158    1.000
    Si2638   Si       0.43385    0.51986    0.57247    1.000
    N2639    N        0.45756    0.59649    0.51753    1.000
    N2640    N        0.41136    0.51128    0.53574    1.000
    Si2641   Si       0.43561    0.63237    0.50892    1.000
    N2642    N        0.41214    0.64318    0.54457    1.000
    Si2643   Si       0.45103    0.71546    0.57969    1.000
    N2644    N        0.40854    0.71358    0.56633    1.000
    N2645    N        0.45229    0.70271    0.62451    1.000
    Si2646   Si       0.44199    0.57143    0.62221    1.000
    N2647    N        0.41037    0.58171    0.65469    1.000
    N2648    N        0.41850    0.60620    0.71928    1.000
    Si2649   Si       0.41404    0.56447    0.69955    1.000
    Si2650   Si       0.44804    0.63615    0.70665    1.000
    N2651    N        0.45745    0.55113    0.70141    1.000
    Si2652   Si       0.45703    0.74477    0.63785    1.000
    N2653    N        0.43016    0.64915    0.66925    1.000
    N2654    N        0.42347    0.75135    0.66435    1.000
    Si2655   Si       0.42072    0.74963    0.70829    1.000
    N2656    N        0.44094    0.61455    0.84148    1.000
    Si2657   Si       0.45002    0.58298    0.81099    1.000
    N2658    N        0.40893    0.57036    0.79944    1.000
    Si2659   Si       0.41342    0.60020    0.76317    1.000
    Si2660   Si       0.41087    0.53413    0.77392    1.000
    Si2661   Si       0.44953    0.51863    0.84998    1.000
    N2662    N        0.45653    0.60289    0.77266    1.000
    N2663    N        0.44816    0.51515    0.76587    1.000
    N2664    N        0.40672    0.52500    0.85437    1.000
    N2665    N        0.42359    0.68036    0.82154    1.000
    Si2666   Si       0.43441    0.72235    0.82322    1.000
    N2667    N        0.42477    0.73885    0.86141    1.000
    Si2668   Si       0.45670    0.65529    0.83372    1.000
    Si2669   Si       0.41647    0.60660    0.87563    1.000
    N2670    N        0.44121    0.59402    0.97225    1.000
    N2671    N        0.42993    0.53035    0.94689    1.000
    N2672    N        0.43729    0.58929    0.90976    1.000
    Si2673   Si       0.42173    0.62221    0.93900    1.000
    Si2674   Si       0.45262    0.56474    0.94122    1.000
    Si2675   Si       0.40805    0.51484    0.97944    1.000
    Si2676   Si       0.40027    0.58807    0.98961    1.000
    Si2677   Si       0.44029    0.69109    0.95925    1.000
    Si2678   Si       0.43995    0.67319    0.90023    1.000
    Si2679   Si       0.44771    0.74432    0.89817    1.000
    N2680    N        0.42691    0.71186    0.92151    1.000
    N2681    N        0.45575    0.65412    0.93854    1.000
    N2682    N        0.40765    0.67394    0.98040    1.000
    N2683    N        0.40800    0.64445    0.89589    1.000
    N2684    N        0.42098    0.86997    0.08031    1.000
    N2685    N        0.43020    0.80099    0.08428    1.000
    Si2686   Si       0.41176    0.76443    0.09930    1.000
    Si2687   Si       0.46215    0.87988    0.06955    1.000
    Si2688   Si       0.40312    0.83298    0.07044    1.000
    Si2689   Si       0.42226    0.90329    0.00540    1.000
    Si2690   Si       0.40846    0.96251    0.11622    1.000
    N2691    N        0.45109    0.95783    0.11929    1.000
    N2692    N        0.45793    0.89941    0.03164    1.000
    Si2693   Si       0.44331    0.87391    0.19700    1.000
    N2694    N        0.44643    0.77673    0.18692    1.000
    Si2695   Si       0.40620    0.76449    0.17707    1.000
    N2696    N        0.44560    0.90451    0.22969    1.000
    N2697    N        0.45745    0.95610    0.18770    1.000
    Si2698   Si       0.43353    0.99170    0.17692    1.000
    N2699    N        0.45860    0.89417    0.16017    1.000
    N2700    N        0.42538    0.82953    0.32157    1.000
    Si2701   Si       0.43260    0.86456    0.29143    1.000
    Si2702   Si       0.41499    0.84678    0.36409    1.000
    N2703    N        0.45689    0.89695    0.30940    1.000
    N2704    N        0.41954    0.94763    0.27776    1.000
    N2705    N        0.43944    0.99665    0.34876    1.000
    Si2706   Si       0.41263    0.97090    0.36922    1.000
    Si2707   Si       0.40836    0.91655    0.25007    1.000
    Si2708   Si       0.45781    0.93747    0.29113    1.000
    N2709    N        0.43042    0.88249    0.44071    1.000
    N2710    N        0.41831    0.76369    0.43091    1.000
    Si2711   Si       0.41344    0.80254    0.41698    1.000
    N2712    N        0.41384    0.82040    0.46127    1.000
    N2713    N        0.44048    0.81343    0.38359    1.000
    Si2714   Si       0.45601    0.82255    0.47573    1.000
    N2715    N        0.44135    0.88341    0.37104    1.000
    Si2716   Si       0.44100    0.90966    0.40557    1.000
    N2717    N        0.42004    0.00221    0.44995    1.000
    N2718    N        0.43254    0.95136    0.40349    1.000
    Si2719   Si       0.41707    0.83506    0.54187    1.000
    N2720    N        0.42446    0.82592    0.58322    1.000
    N2721    N        0.45312    0.83331    0.51815    1.000
    Si2722   Si       0.45707    0.83960    0.60996    1.000
    N2723    N        0.43724    0.97798    0.57823    1.000
    Si2724   Si       0.44750    0.97110    0.53686    1.000
    N2725    N        0.42037    0.94183    0.52103    1.000
    Si2726   Si       0.43668    0.90054    0.52767    1.000
    Si2727   Si       0.43666    0.91258    0.60641    1.000
    N2728    N        0.45628    0.90438    0.56862    1.000
    Si2729   Si       0.43408    0.98090    0.62015    1.000
    N2730    N        0.43756    0.87338    0.62789    1.000
    N2731    N        0.42949    0.79148    0.71660    1.000
    N2732    N        0.40741    0.85613    0.69185    1.000
    N2733    N        0.44881    0.92336    0.71905    1.000
    Si2734   Si       0.41371    0.89603    0.71181    1.000
    Si2735   Si       0.40977    0.99060    0.72914    1.000
    N2736    N        0.44574    0.94321    0.63621    1.000
    N2737    N        0.42126    0.96983    0.69254    1.000
    Si2738   Si       0.45868    0.93952    0.67811    1.000
    N2739    N        0.44365    0.83916    0.79939    1.000
    Si2740   Si       0.45133    0.82247    0.83773    1.000
    N2741    N        0.41270    0.80345    0.85586    1.000
    Si2742   Si       0.40790    0.85797    0.78089    1.000
    N2743    N        0.40862    0.89372    0.75615    1.000
    N2744    N        0.43950    0.90492    0.84124    1.000
    N2745    N        0.43748    0.97296    0.83412    1.000
    Si2746   Si       0.43462    0.92710    0.76108    1.000
    N2747    N        0.41302    0.96274    0.76436    1.000
    Si2748   Si       0.43246    0.86296    0.94013    1.000
    N2749    N        0.44580    0.78612    0.91283    1.000
    N2750    N        0.41426    0.86761    0.98121    1.000
    Si2751   Si       0.44531    0.79742    0.95564    1.000
    N2752    N        0.40468    0.79621    0.96850    1.000
    Si2753   Si       0.40701    0.80142    0.89896    1.000
    N2754    N        0.40198    0.84293    0.91521    1.000
    N2755    N        0.44017    0.00334    0.95640    1.000
    N2756    N        0.44790    0.89722    0.91850    1.000
    N2757    N        0.43500    0.93398    0.97635    1.000
    N2758    N        0.43028    0.96199    0.90518    1.000
    Si2759   Si       0.44852    0.93596    0.93467    1.000
    Si2760   Si       0.43203    0.97648    0.98878    1.000
    Si2761   Si       0.46094    0.89133    0.87606    1.000
    Si2762   Si       0.45851    0.99492    0.91686    1.000
    N2763    N        0.50433    0.10471    0.03685    1.000
    Si2764   Si       0.49473    0.07421    0.00574    1.000
    N2765    N        0.46836    0.04085    0.01192    1.000
    N2766    N        0.47172    0.07846    0.11395    1.000
    N2767    N        0.46425    0.01904    0.07885    1.000
    Si2768   Si       0.51403    0.06961    0.11567    1.000
    Si2769   Si       0.47623    0.13276    0.01757    1.000
    Si2770   Si       0.47936    0.00882    0.03900    1.000
    N2771    N        0.48815    0.18491    0.10472    1.000
    N2772    N        0.48900    0.21405    0.04641    1.000
    N2773    N        0.50181    0.16334    0.99968    1.000
    Si2774   Si       0.46188    0.18814    0.06737    1.000
    N2775    N        0.46169    0.01560    0.15271    1.000
    N2776    N        0.51786    0.06087    0.15948    1.000
    Si2777   Si       0.48268    0.04514    0.17619    1.000
    N2778    N        0.48558    0.02989    0.21796    1.000
    Si2779   Si       0.46705    0.10601    0.14851    1.000
    N2780    N        0.50092    0.13449    0.15703    1.000
    N2781    N        0.47156    0.13493    0.23257    1.000
    Si2782   Si       0.47472    0.17451    0.21755    1.000
    Si2783   Si       0.47439    0.16837    0.14327    1.000
    N2784    N        0.46856    0.24882    0.20002    1.000
    N2785    N        0.51169    0.23853    0.14578    1.000
    Si2786   Si       0.51020    0.23544    0.18976    1.000
    N2787    N        0.51352    0.19516    0.20942    1.000
    N2788    N        0.49914    0.08350    0.36398    1.000
    N2789    N        0.49733    0.02018    0.32931    1.000
    Si2790   Si       0.47203    0.04981    0.35193    1.000
    Si2791   Si       0.48740    0.13298    0.27388    1.000
    N2792    N        0.51805    0.10377    0.28770    1.000
    Si2793   Si       0.48899    0.20649    0.27928    1.000
    N2794    N        0.50731    0.14765    0.34207    1.000
    N2795    N        0.51136    0.17099    0.27261    1.000
    Si2796   Si       0.46860    0.16498    0.33490    1.000
    N2797    N        0.46711    0.20716    0.31978    1.000
    Si2798   Si       0.49004    0.24605    0.33025    1.000
    N2799    N        0.51354    0.24181    0.29306    1.000
    N2800    N        0.50906    0.26095    0.36539    1.000
    N2801    N        0.49711    0.09955    0.44919    1.000
    N2802    N        0.47682    0.03011    0.39141    1.000
    Si2803   Si       0.51290    0.08813    0.40582    1.000
    Si2804   Si       0.51000    0.01159    0.41568    1.000
    N2805    N        0.48969    0.20627    0.48001    1.000
    N2806    N        0.50624    0.18546    0.41212    1.000
    Si2807   Si       0.46366    0.19345    0.40802    1.000
    N2808    N        0.47597    0.08987    0.53978    1.000
    N2809    N        0.50693    0.02636    0.55834    1.000
    Si2810   Si       0.51141    0.06808    0.54602    1.000
    Si2811   Si       0.47901    0.13645    0.54038    1.000
    N2812    N        0.50889    0.13626    0.50648    1.000
    N2813    N        0.49959    0.14735    0.57906    1.000
    N2814    N        0.49404    0.23578    0.56207    1.000
    Si2815   Si       0.49175    0.19341    0.57565    1.000
    N2816    N        0.47897    0.18084    0.53327    1.000
    N2817    N        0.51435    0.20041    0.61439    1.000
    Si2818   Si       0.51687    0.18056    0.50670    1.000
    Si2819   Si       0.45828    0.20957    0.50765    1.000
    N2820    N        0.49083    0.07991    0.63176    1.000
    Si2821   Si       0.48940    0.12097    0.64963    1.000
    N2822    N        0.49117    0.03805    0.70253    1.000
    N2823    N        0.49799    0.10975    0.69202    1.000
    Si2824   Si       0.46963    0.07597    0.70225    1.000
    Si2825   Si       0.49103    0.01303    0.66596    1.000
    N2826    N        0.50385    0.25739    0.63935    1.000
    Si2827   Si       0.47800    0.22058    0.63256    1.000
    Si2828   Si       0.50472    0.18738    0.71354    1.000
    N2829    N        0.49809    0.22611    0.72952    1.000
    N2830    N        0.48826    0.19911    0.67338    1.000
    Si2831   Si       0.46528    0.23251    0.69576    1.000
    N2832    N        0.49891    0.15346    0.74007    1.000
    Si2833   Si       0.45797    0.13726    0.73672    1.000
    Si2834   Si       0.49769    0.11921    0.83400    1.000
    Si2835   Si       0.50483    0.04728    0.80678    1.000
    N2836    N        0.46610    0.03671    0.82163    1.000
    N2837    N        0.51124    0.03144    0.76901    1.000
    N2838    N        0.50221    0.15497    0.81027    1.000
    Si2839   Si       0.49429    0.19624    0.82489    1.000
    Si2840   Si       0.50786    0.24072    0.87031    1.000
    N2841    N        0.51413    0.23644    0.82434    1.000
    N2842    N        0.49773    0.19713    0.86893    1.000
    N2843    N        0.46385    0.25913    0.85983    1.000
    N2844    N        0.50815    0.12954    0.87393    1.000
    Si2845   Si       0.50868    0.10047    0.90880    1.000
    N2846    N        0.47147    0.10921    0.92615    1.000
    N2847    N        0.51305    0.05916    0.90106    1.000
    N2848    N        0.46055    0.10030    0.99158    1.000
    N2849    N        0.49848    0.25329    0.91136    1.000
    N2850    N        0.50847    0.17187    0.92983    1.000
    Si2851   Si       0.48723    0.16317    0.89350    1.000
    Si2852   Si       0.48269    0.17949    0.96402    1.000
    N2853    N        0.47843    0.22232    0.97176    1.000
    N2854    N        0.48967    0.27217    0.08780    1.000
    N2855    N        0.49636    0.33910    0.10924    1.000
    Si2856   Si       0.46773    0.30917    0.09660    1.000
    N2857    N        0.48362    0.33119    0.00541    1.000
    Si2858   Si       0.51000    0.36979    0.08253    1.000
    Si2859   Si       0.49019    0.25682    0.04785    1.000
    N2860    N        0.50928    0.45120    0.07817    1.000
    N2861    N        0.47640    0.39163    0.06476    1.000
    Si2862   Si       0.48003    0.43242    0.05063    1.000
    N2863    N        0.48579    0.43582    0.00772    1.000
    Si2864   Si       0.50922    0.46767    0.11944    1.000
    N2865    N        0.50072    0.31302    0.20192    1.000
    Si2866   Si       0.50049    0.35534    0.21213    1.000
    Si2867   Si       0.46485    0.28974    0.21349    1.000
    N2868    N        0.46126    0.37219    0.21950    1.000
    N2869    N        0.50883    0.37788    0.17549    1.000
    N2870    N        0.46754    0.43083    0.17876    1.000
    Si2871   Si       0.48601    0.46473    0.22137    1.000
    Si2872   Si       0.51050    0.42176    0.17726    1.000
    N2873    N        0.47001    0.48414    0.12759    1.000
    Si2874   Si       0.50783    0.37741    0.28768    1.000
    N2875    N        0.46630    0.37189    0.28885    1.000
    N2876    N        0.49502    0.41132    0.35160    1.000
    Si2877   Si       0.50558    0.44067    0.32025    1.000
    N2878    N        0.46722    0.46216    0.31739    1.000
    N2879    N        0.48610    0.50500    0.36525    1.000
    N2880    N        0.50409    0.49178    0.24922    1.000
    N2881    N        0.48170    0.28865    0.48429    1.000
    N2882    N        0.48920    0.30529    0.42102    1.000
    Si2883   Si       0.49527    0.26479    0.40628    1.000
    N2884    N        0.49829    0.38065    0.46309    1.000
    Si2885   Si       0.47562    0.49749    0.47321    1.000
    N2886    N        0.50434    0.42552    0.41742    1.000
    Si2887   Si       0.47340    0.41969    0.38844    1.000
    N2888    N        0.50694    0.46443    0.47778    1.000
    N2889    N        0.49100    0.36366    0.58715    1.000
    N2890    N        0.48422    0.30143    0.54813    1.000
    Si2891   Si       0.50413    0.37371    0.50570    1.000
    Si2892   Si       0.51143    0.29876    0.51333    1.000
    N2893    N        0.46741    0.36630    0.52768    1.000
    Si2894   Si       0.46573    0.33948    0.56103    1.000
    Si2895   Si       0.46312    0.26428    0.55211    1.000
    Si2896   Si       0.49106    0.40164    0.56470    1.000
    Si2897   Si       0.49667    0.47278    0.58600    1.000
    N2898    N        0.50199    0.42950    0.59992    1.000
    N2899    N        0.50832    0.50077    0.61546    1.000
    N2900    N        0.47287    0.27517    0.69640    1.000
    Si2901   Si       0.50303    0.35748    0.62887    1.000
    Si2902   Si       0.48144    0.29063    0.65674    1.000
    Si2903   Si       0.47384    0.37658    0.69847    1.000
    N2904    N        0.51161    0.32199    0.65131    1.000
    Si2905   Si       0.50873    0.26706    0.73432    1.000
    N2906    N        0.47064    0.38035    0.65323    1.000
    N2907    N        0.51655    0.37571    0.70400    1.000
    N2908    N        0.49132    0.45005    0.66094    1.000
    Si2909   Si       0.47296    0.42044    0.63183    1.000
    N2910    N        0.51222    0.44615    0.72034    1.000
    Si2911   Si       0.47460    0.44663    0.69980    1.000
    N2912    N        0.50728    0.51138    0.73659    1.000
    N2913    N        0.48928    0.36335    0.79282    1.000
    Si2914   Si       0.49549    0.32016    0.78688    1.000
    Si2915   Si       0.47208    0.29885    0.84102    1.000
    N2916    N        0.51358    0.30370    0.82348    1.000
    N2917    N        0.48408    0.29784    0.75278    1.000
    N2918    N        0.49882    0.46510    0.78542    1.000
    Si2919   Si       0.49981    0.46931    0.82764    1.000
    N2920    N        0.51527    0.43326    0.84683    1.000
    N2921    N        0.51040    0.37196    0.87866    1.000
    N2922    N        0.47457    0.31550    0.88055    1.000
    Si2923   Si       0.48731    0.34702    0.90610    1.000
    Si2924   Si       0.47531    0.33388    0.96440    1.000
    N2925    N        0.51297    0.33759    0.93971    1.000
    N2926    N        0.46474    0.29397    0.94921    1.000
    Si2927   Si       0.46274    0.27794    0.90326    1.000
    Si2928   Si       0.48891    0.26011    0.95551    1.000
    Si2929   Si       0.51850    0.47296    0.93755    1.000
    N2930    N        0.47567    0.47389    0.94538    1.000
    Si2931   Si       0.49845    0.41387    0.88439    1.000
    Si2932   Si       0.48456    0.54511    0.04872    1.000
    N2933    N        0.47624    0.58408    0.03648    1.000
    Si2934   Si       0.47039    0.60616    0.00299    1.000
    N2935    N        0.49464    0.51070    0.02283    1.000
    N2936    N        0.51761    0.54652    0.07603    1.000
    N2937    N        0.46363    0.64770    0.01504    1.000
    Si2938   Si       0.47353    0.67662    0.04497    1.000
    N2939    N        0.48150    0.67196    0.08745    1.000
    N2940    N        0.48462    0.74741    0.04200    1.000
    Si2941   Si       0.51693    0.65286    0.10525    1.000
    N2942    N        0.51580    0.68882    0.03163    1.000
    N2943    N        0.48944    0.55645    0.23943    1.000
    N2944    N        0.47505    0.58432    0.17651    1.000
    Si2945   Si       0.51280    0.59997    0.16458    1.000
    Si2946   Si       0.49814    0.73699    0.17124    1.000
    Si2947   Si       0.48865    0.68334    0.22316    1.000
    N2948    N        0.46006    0.65738    0.20154    1.000
    Si2949   Si       0.46770    0.66073    0.15835    1.000
    N2950    N        0.48015    0.72492    0.20991    1.000
    N2951    N        0.50177    0.63598    0.14259    1.000
    N2952    N        0.47972    0.70485    0.14700    1.000
    N2953    N        0.50052    0.53410    0.30390    1.000
    Si2954   Si       0.48170    0.52516    0.26714    1.000
    N2955    N        0.50761    0.59781    0.33237    1.000
    Si2956   Si       0.46451    0.60602    0.32650    1.000
    Si2957   Si       0.51804    0.50854    0.33506    1.000
    N2958    N        0.49106    0.68304    0.26660    1.000
    N2959    N        0.47773    0.68802    0.36803    1.000
    Si2960   Si       0.51818    0.69743    0.35469    1.000
    N2961    N        0.51833    0.72483    0.31952    1.000
    Si2962   Si       0.49212    0.58822    0.41367    1.000
    N2963    N        0.49266    0.58390    0.45796    1.000
    N2964    N        0.50814    0.62611    0.39756    1.000
    Si2965   Si       0.50447    0.51721    0.40401    1.000
    Si2966   Si       0.46665    0.56618    0.48726    1.000
    N2967    N        0.47371    0.51540    0.43437    1.000
    N2968    N        0.52013    0.55633    0.39967    1.000
    Si2969   Si       0.47352    0.68004    0.45808    1.000
    N2970    N        0.46533    0.66309    0.49627    1.000
    Si2971   Si       0.47192    0.64949    0.38546    1.000
    N2972    N        0.51273    0.68761    0.44094    1.000
    N2973    N        0.48476    0.76190    0.40239    1.000
    N2974    N        0.50113    0.60968    0.57268    1.000
    Si2975   Si       0.49949    0.52511    0.54325    1.000
    N2976    N        0.48408    0.52983    0.50381    1.000
    N2977    N        0.46838    0.54711    0.56771    1.000
    Si2978   Si       0.51485    0.54544    0.60883    1.000
    Si2979   Si       0.46278    0.58950    0.56165    1.000
    N2980    N        0.46652    0.72517    0.52821    1.000
    Si2981   Si       0.48213    0.68587    0.52887    1.000
    Si2982   Si       0.50036    0.64759    0.59098    1.000
    N2983    N        0.47378    0.67540    0.56982    1.000
    N2984    N        0.46564    0.75376    0.59420    1.000
    Si2985   Si       0.48646    0.75883    0.51107    1.000
    Si2986   Si       0.48624    0.57584    0.67994    1.000
    N2987    N        0.48272    0.56523    0.63531    1.000
    N2988    N        0.48623    0.61676    0.69264    1.000
    Si2989   Si       0.46529    0.51619    0.72686    1.000
    N2990    N        0.46307    0.66428    0.73607    1.000
    Si2991   Si       0.46336    0.67029    0.65025    1.000
    N2992    N        0.49609    0.68588    0.68162    1.000
    Si2993   Si       0.51543    0.64530    0.67402    1.000
    Si2994   Si       0.48514    0.69870    0.72234    1.000
    N2995    N        0.49448    0.64659    0.63367    1.000
    N2996    N        0.49829    0.74949    0.65283    1.000
    N2997    N        0.45965    0.73544    0.72128    1.000
    N2998    N        0.47018    0.54929    0.82685    1.000
    Si2999   Si       0.51351    0.54367    0.83291    1.000
    N3000    N        0.51943    0.61869    0.75816    1.000
    Si3001   Si       0.48271    0.63819    0.76728    1.000
    N3002    N        0.47267    0.72721    0.80801    1.000
    N3003    N        0.48631    0.66140    0.80334    1.000
    Si3004   Si       0.50400    0.70028    0.79739    1.000
    N3005    N        0.51225    0.70744    0.75451    1.000
    N3006    N        0.50868    0.60616    0.97652    1.000
    Si3007   Si       0.50411    0.53479    0.90108    1.000
    N3008    N        0.49267    0.55104    0.94021    1.000
    N3009    N        0.46821    0.51398    0.89009    1.000
    N3010    N        0.51559    0.63123    0.91378    1.000
    N3011    N        0.47216    0.67152    0.87216    1.000
    Si3012   Si       0.51168    0.70518    0.99074    1.000
    Si3013   Si       0.49875    0.64121    0.95206    1.000
    Si3014   Si       0.51222    0.66219    0.88346    1.000
    N3015    N        0.46912    0.71284    0.98490    1.000
    N3016    N        0.49007    0.73805    0.89414    1.000
    N3017    N        0.48016    0.84101    0.06050    1.000
    Si3018   Si       0.47090    0.81310    0.09190    1.000
    N3019    N        0.50735    0.78846    0.09365    1.000
    Si3020   Si       0.51525    0.84052    0.03561    1.000
    Si3021   Si       0.51784    0.76832    0.05710    1.000
    N3022    N        0.50751    0.85811    0.99608    1.000
    N3023    N        0.48816    0.89324    0.10107    1.000
    Si3024   Si       0.48398    0.93596    0.01970    1.000
    Si3025   Si       0.47622    0.99616    0.11488    1.000
    N3026    N        0.46350    0.97327    0.01988    1.000
    N3027    N        0.51589    0.98662    0.10633    1.000
    N3028    N        0.51042    0.93863    0.05375    1.000
    Si3029   Si       0.46970    0.80952    0.17053    1.000
    N3030    N        0.47267    0.83013    0.13088    1.000
    N3031    N        0.50428    0.77972    0.16160    1.000
    Si3032   Si       0.49084    0.83263    0.24052    1.000
    N3033    N        0.46988    0.84045    0.20288    1.000
    Si3034   Si       0.48705    0.87022    0.13784    1.000
    N3035    N        0.49362    0.78932    0.24028    1.000
    Si3036   Si       0.46186    0.76179    0.22451    1.000
    Si3037   Si       0.46840    0.93460    0.15129    1.000
    N3038    N        0.51231    0.93797    0.15475    1.000
    Si3039   Si       0.47645    0.93505    0.22103    1.000
    N3040    N        0.51522    0.91449    0.21871    1.000
    N3041    N        0.49444    0.84532    0.33967    1.000
    N3042    N        0.47834    0.78121    0.32709    1.000
    Si3043   Si       0.46976    0.82047    0.31150    1.000
    N3044    N        0.46590    0.84175    0.27400    1.000
    Si3045   Si       0.46113    0.77891    0.36823    1.000
    Si3046   Si       0.47603    0.88459    0.34617    1.000
    Si3047   Si       0.48976    0.99327    0.29014    1.000
    N3048    N        0.47989    0.95870    0.25729    1.000
    Si3049   Si       0.48261    0.98741    0.35343    1.000
    N3050    N        0.48752    0.95806    0.31854    1.000
    N3051    N        0.50947    0.91190    0.35882    1.000
    N3052    N        0.47066    0.78001    0.47664    1.000
    N3053    N        0.48530    0.84798    0.46218    1.000
    N3054    N        0.50513    0.97493    0.38754    1.000
    Si3055   Si       0.51075    0.93329    0.39769    1.000
    N3056    N        0.48390    0.91391    0.42514    1.000
    N3057    N        0.49200    0.00368    0.45585    1.000
    Si3058   Si       0.46998    0.88827    0.45674    1.000
    N3059    N        0.49055    0.85006    0.58196    1.000
    Si3060   Si       0.48778    0.82877    0.54330    1.000
    N3061    N        0.49196    0.78629    0.54240    1.000
    Si3062   Si       0.50583    0.76928    0.57978    1.000
    Si3063   Si       0.49839    0.89709    0.57706    1.000
    N3064    N        0.48955    0.96536    0.53303    1.000
    Si3065   Si       0.50199    0.92919    0.51091    1.000
    N3066    N        0.46967    0.90293    0.49880    1.000
    N3067    N        0.51496    0.91508    0.61280    1.000
    Si3068   Si       0.52405    0.98818    0.54512    1.000
    N3069    N        0.46973    0.85776    0.73693    1.000
    Si3070   Si       0.46990    0.77837    0.72639    1.000
    N3071    N        0.47820    0.81246    0.63679    1.000
    N3072    N        0.50072    0.80099    0.70517    1.000
    Si3073   Si       0.50873    0.79276    0.66245    1.000
    N3074    N        0.52054    0.90825    0.73904    1.000
    Si3075   Si       0.48394    0.89571    0.72148    1.000
    N3076    N        0.49077    0.96949    0.67765    1.000
    N3077    N        0.48695    0.90036    0.67819    1.000
    N3078    N        0.48647    0.79494    0.83453    1.000
    Si3079   Si       0.47798    0.83307    0.77116    1.000
    Si3080   Si       0.48537    0.76629    0.80251    1.000
    N3081    N        0.47596    0.78855    0.76793    1.000
    Si3082   Si       0.47269    0.99815    0.84129    1.000
    N3083    N        0.49651    0.96997    0.81969    1.000
    N3084    N        0.47071    0.92458    0.78500    1.000
    Si3085   Si       0.51692    0.92701    0.78006    1.000
    Si3086   Si       0.46444    0.93842    0.82875    1.000
    N3087    N        0.46408    0.84864    0.87204    1.000
    N3088    N        0.51509    0.80726    0.89193    1.000
    N3089    N        0.46829    0.83488    0.94136    1.000
    Si3090   Si       0.50728    0.84535    0.95589    1.000
    Si3091   Si       0.47509    0.81782    0.90051    1.000
    N3092    N        0.47167    0.77908    0.98331    1.000
    Si3093   Si       0.51657    0.77997    0.98881    1.000
    N3094    N        0.49187    0.92229    0.86807    1.000
    Si3095   Si       0.50549    0.95449    0.89407    1.000
    N3096    N        0.48611    0.96161    0.93477    1.000
    N3097    N        0.49048    0.99511    0.88293    1.000
    N3098    N        0.51334    0.93066    0.98777    1.000
    N3099    N        0.53768    0.04617    0.08824    1.000
    Si3100   Si       0.53462    0.12093    0.06231    1.000
    N3101    N        0.53454    0.10767    0.10493    1.000
    Si3102   Si       0.54769    0.02379    0.00443    1.000
    Si3103   Si       0.57172    0.06396    0.06632    1.000
    N3104    N        0.57342    0.10548    0.05169    1.000
    N3105    N        0.54694    0.21541    0.00622    1.000
    Si3106   Si       0.53056    0.18580    0.09821    1.000
    N3107    N        0.54850    0.22510    0.08648    1.000
    N3108    N        0.53687    0.16425    0.05808    1.000
    Si3109   Si       0.52430    0.25511    0.10996    1.000
    Si3110   Si       0.52033    0.19069    0.02747    1.000
    N3111    N        0.56780    0.11342    0.17223    1.000
    Si3112   Si       0.55264    0.07264    0.18344    1.000
    Si3113   Si       0.52552    0.02578    0.23202    1.000
    N3114    N        0.54174    0.06556    0.22633    1.000
    Si3115   Si       0.54110    0.13089    0.14083    1.000
    N3116    N        0.55804    0.13619    0.23403    1.000
    Si3117   Si       0.53894    0.17378    0.23937    1.000
    N3118    N        0.54349    0.25893    0.20140    1.000
    Si3119   Si       0.57450    0.24033    0.22602    1.000
    N3120    N        0.55680    0.16891    0.12707    1.000
    N3121    N        0.56992    0.20190    0.24765    1.000
    N3122    N        0.56410    0.10607    0.33917    1.000
    Si3123   Si       0.54973    0.09683    0.25577    1.000
    Si3124   Si       0.57291    0.12699    0.37513    1.000
    Si3125   Si       0.51964    0.10704    0.33299    1.000
    Si3126   Si       0.55557    0.24987    0.29711    1.000
    N3127    N        0.56702    0.16870    0.36744    1.000
    N3128    N        0.56737    0.11622    0.46927    1.000
    N3129    N        0.53608    0.12437    0.39908    1.000
    Si3130   Si       0.52565    0.10477    0.48185    1.000
    Si3131   Si       0.57100    0.03574    0.43161    1.000
    N3132    N        0.53191    0.05157    0.41889    1.000
    Si3133   Si       0.51847    0.20661    0.44739    1.000
    N3134    N        0.54703    0.18359    0.47374    1.000
    N3135    N        0.52565    0.24486    0.43211    1.000
    Si3136   Si       0.52446    0.16301    0.38165    1.000
    Si3137   Si       0.56592    0.25862    0.42459    1.000
    N3138    N        0.57483    0.23890    0.38736    1.000
    N3139    N        0.53532    0.07069    0.50954    1.000
    N3140    N        0.53234    0.08638    0.58065    1.000
    Si3141   Si       0.56380    0.03855    0.50714    1.000
    Si3142   Si       0.53362    0.12729    0.59390    1.000
    Si3143   Si       0.52882    0.06351    0.62148    1.000
    N3144    N        0.54622    0.19802    0.53684    1.000
    Si3145   Si       0.53573    0.23894    0.54973    1.000
    N3146    N        0.55724    0.24461    0.58496    1.000
    N3147    N        0.57062    0.14262    0.57871    1.000
    N3148    N        0.56623    0.07777    0.64021    1.000
    N3149    N        0.56311    0.04635    0.73029    1.000
    Si3150   Si       0.53100    0.13010    0.71507    1.000
    N3151    N        0.56768    0.11131    0.69740    1.000
    Si3152   Si       0.56857    0.11832    0.65520    1.000
    N3153    N        0.52494    0.02751    0.64313    1.000
    Si3154   Si       0.52375    0.02774    0.72842    1.000
    N3155    N        0.53120    0.13512    0.63756    1.000
    N3156    N        0.56397    0.20492    0.64993    1.000
    Si3157   Si       0.54067    0.23830    0.62564    1.000
    Si3158   Si       0.52927    0.17851    0.65285    1.000
    N3159    N        0.53782    0.16691    0.69455    1.000
    Si3160   Si       0.55671    0.09825    0.79842    1.000
    N3161    N        0.55047    0.11447    0.75710    1.000
    N3162    N        0.52701    0.02366    0.83840    1.000
    N3163    N        0.51585    0.08833    0.81152    1.000
    N3164    N        0.56771    0.13393    0.81772    1.000
    N3165    N        0.55277    0.18626    0.77613    1.000
    Si3166   Si       0.52479    0.15085    0.77491    1.000
    Si3167   Si       0.56608    0.22607    0.75794    1.000
    Si3168   Si       0.56006    0.08347    0.96237    1.000
    N3169    N        0.54145    0.11101    0.93322    1.000
    N3170    N        0.53181    0.06303    0.98786    1.000
    Si3171   Si       0.52378    0.02440    0.88064    1.000
    Si3172   Si       0.57522    0.01278    0.93909    1.000
    Si3173   Si       0.57603    0.20284    0.97587    1.000
    N3174    N        0.57570    0.16154    0.96141    1.000
    N3175    N        0.55384    0.24704    0.88285    1.000
    Si3176   Si       0.54048    0.25396    0.92476    1.000
    Si3177   Si       0.54779    0.15280    0.92864    1.000
    N3178    N        0.56834    0.16867    0.89317    1.000
    N3179    N        0.56936    0.22281    0.93683    1.000
    N3180    N        0.53506    0.35744    0.04866    1.000
    Si3181   Si       0.52358    0.32236    0.02250    1.000
    N3182    N        0.52286    0.27899    0.03116    1.000
    N3183    N        0.56329    0.27375    0.11931    1.000
    Si3184   Si       0.54901    0.25877    0.00151    1.000
    Si3185   Si       0.55886    0.38092    0.01966    1.000
    N3186    N        0.53796    0.38386    0.11253    1.000
    Si3187   Si       0.54878    0.45357    0.06158    1.000
    N3188    N        0.54816    0.42157    0.03448    1.000
    N3189    N        0.55459    0.49353    0.04835    1.000
    Si3190   Si       0.53555    0.50141    0.00873    1.000
    N3191    N        0.54154    0.49771    0.11787    1.000
    N3192    N        0.57560    0.43941    0.09164    1.000
    Si3193   Si       0.55955    0.41781    0.12507    1.000
    Si3194   Si       0.54195    0.30106    0.19520    1.000
    N3195    N        0.55018    0.32590    0.15761    1.000
    N3196    N        0.56976    0.32418    0.22108    1.000
    Si3197   Si       0.52237    0.35417    0.14150    1.000
    Si3198   Si       0.56588    0.35890    0.24499    1.000
    Si3199   Si       0.54282    0.49658    0.23250    1.000
    N3200    N        0.51667    0.43313    0.21849    1.000
    N3201    N        0.53482    0.49469    0.19060    1.000
    Si3202   Si       0.56012    0.48160    0.15776    1.000
    N3203    N        0.53276    0.44144    0.14674    1.000
    Si3204   Si       0.56290    0.32902    0.31893    1.000
    N3205    N        0.56064    0.28606    0.32648    1.000
    N3206    N        0.53076    0.35723    0.32235    1.000
    Si3207   Si       0.55031    0.27251    0.36693    1.000
    N3208    N        0.52243    0.36160    0.25013    1.000
    N3209    N        0.57281    0.26615    0.26162    1.000
    Si3210   Si       0.52782    0.38292    0.35753    1.000
    N3211    N        0.53621    0.46930    0.33459    1.000
    N3212    N        0.56378    0.40626    0.35671    1.000
    Si3213   Si       0.57118    0.44994    0.35133    1.000
    Si3214   Si       0.54519    0.42759    0.25083    1.000
    N3215    N        0.56681    0.46607    0.25249    1.000
    N3216    N        0.52300    0.41841    0.28702    1.000
    Si3217   Si       0.56609    0.34201    0.48789    1.000
    N3218    N        0.55383    0.29632    0.40205    1.000
    Si3219   Si       0.52961    0.32787    0.41895    1.000
    N3220    N        0.55408    0.34964    0.44792    1.000
    N3221    N        0.52442    0.36598    0.39771    1.000
    N3222    N        0.53545    0.48994    0.41673    1.000
    N3223    N        0.55738    0.42204    0.45223    1.000
    Si3224   Si       0.52698    0.45365    0.44132    1.000
    Si3225   Si       0.52926    0.39021    0.43411    1.000
    N3226    N        0.54252    0.26916    0.51922    1.000
    N3227    N        0.52880    0.33725    0.50848    1.000
    Si3228   Si       0.54555    0.42121    0.61264    1.000
    N3229    N        0.57040    0.44266    0.51466    1.000
    Si3230   Si       0.56932    0.40524    0.53507    1.000
    Si3231   Si       0.52568    0.45181    0.51516    1.000
    N3232    N        0.57313    0.41658    0.57900    1.000
    N3233    N        0.52009    0.40803    0.53101    1.000
    N3234    N        0.52139    0.48278    0.54901    1.000
    N3235    N        0.53714    0.29045    0.70968    1.000
    Si3236   Si       0.54741    0.30217    0.66857    1.000
    Si3237   Si       0.55229    0.37310    0.67594    1.000
    N3238    N        0.57430    0.33569    0.67334    1.000
    N3239    N        0.57061    0.26690    0.65411    1.000
    Si3240   Si       0.55793    0.30276    0.74606    1.000
    N3241    N        0.53774    0.38526    0.63703    1.000
    Si3242   Si       0.52346    0.47874    0.64859    1.000
    Si3243   Si       0.53534    0.40996    0.72349    1.000
    N3244    N        0.55656    0.45450    0.63803    1.000
    N3245    N        0.57282    0.40282    0.70110    1.000
    N3246    N        0.54158    0.50738    0.67343    1.000
    N3247    N        0.54772    0.36958    0.82512    1.000
    N3248    N        0.53650    0.33272    0.76718    1.000
    Si3249   Si       0.53090    0.37048    0.78563    1.000
    Si3250   Si       0.53980    0.26934    0.80989    1.000
    Si3251   Si       0.52893    0.34034    0.85128    1.000
    N3252    N        0.54212    0.26524    0.76753    1.000
    N3253    N        0.56658    0.46662    0.75920    1.000
    N3254    N        0.54504    0.40421    0.76489    1.000
    Si3255   Si       0.55089    0.40888    0.84239    1.000
    N3256    N        0.52478    0.50396    0.84129    1.000
    Si3257   Si       0.52368    0.47212    0.75265    1.000
    Si3258   Si       0.55380    0.49954    0.87291    1.000
    N3259    N        0.55997    0.32397    0.87560    1.000
    Si3260   Si       0.54719    0.35416    0.95979    1.000
    N3261    N        0.53035    0.27098    0.96339    1.000
    N3262    N        0.55928    0.33275    0.99601    1.000
    Si3263   Si       0.56645    0.43057    0.90638    1.000
    N3264    N        0.53369    0.39042    0.98104    1.000
    Si3265   Si       0.52669    0.43081    0.99687    1.000
    N3266    N        0.53704    0.46976    0.97804    1.000
    N3267    N        0.52434    0.43395    0.91690    1.000
    N3268    N        0.57211    0.39768    0.87772    1.000
    N3269    N        0.53414    0.50371    0.91158    1.000
    N3270    N        0.53904    0.61998    0.08395    1.000
    Si3271   Si       0.55339    0.52103    0.08285    1.000
    Si3272   Si       0.53825    0.57849    0.09674    1.000
    N3273    N        0.57775    0.55467    0.09699    1.000
    N3274    N        0.54694    0.68445    0.09444    1.000
    N3275    N        0.55293    0.74194    0.05912    1.000
    Si3276   Si       0.55125    0.69852    0.05403    1.000
    Si3277   Si       0.57960    0.63570    0.06974    1.000
    N3278    N        0.55953    0.53619    0.23669    1.000
    N3279    N        0.53528    0.60018    0.20511    1.000
    Si3280   Si       0.53125    0.57102    0.23641    1.000
    N3281    N        0.53750    0.57440    0.14036    1.000
    Si3282   Si       0.57725    0.55322    0.14084    1.000
    N3283    N        0.52927    0.66981    0.21009    1.000
    Si3284   Si       0.54863    0.70995    0.21402    1.000
    N3285    N        0.54102    0.73130    0.17957    1.000
    Si3286   Si       0.55675    0.63689    0.21018    1.000
    N3287    N        0.54361    0.58609    0.27640    1.000
    N3288    N        0.54994    0.53959    0.34065    1.000
    Si3289   Si       0.53304    0.61945    0.35992    1.000
    Si3290   Si       0.52827    0.56698    0.31171    1.000
    N3291    N        0.54062    0.66119    0.34747    1.000
    Si3292   Si       0.52641    0.70556    0.28056    1.000
    N3293    N        0.56645    0.68519    0.28467    1.000
    N3294    N        0.53581    0.73259    0.24726    1.000
    Si3295   Si       0.57640    0.66686    0.32136    1.000
    N3296    N        0.56722    0.59764    0.37439    1.000
    Si3297   Si       0.55765    0.55557    0.37984    1.000
    Si3298   Si       0.53028    0.59471    0.47345    1.000
    N3299    N        0.56341    0.57040    0.45967    1.000
    N3300    N        0.57068    0.69348    0.47146    1.000
    Si3301   Si       0.53472    0.65238    0.42482    1.000
    N3302    N        0.54071    0.63484    0.46316    1.000
    N3303    N        0.54391    0.75547    0.43602    1.000
    Si3304   Si       0.52799    0.75718    0.39572    1.000
    N3305    N        0.54448    0.71978    0.37988    1.000
    N3306    N        0.57398    0.65953    0.40747    1.000
    Si3307   Si       0.53793    0.72049    0.45990    1.000
    Si3308   Si       0.53314    0.58875    0.55658    1.000
    N3309    N        0.53960    0.58856    0.51534    1.000
    N3310    N        0.57185    0.60112    0.57236    1.000
    N3311    N        0.53205    0.54340    0.56574    1.000
    N3312    N        0.57147    0.52285    0.51463    1.000
    Si3313   Si       0.57392    0.56369    0.50294    1.000
    Si3314   Si       0.55946    0.51087    0.55391    1.000
    N3315    N        0.52800    0.73378    0.57303    1.000
    N3316    N        0.54217    0.66257    0.58480    1.000
    Si3317   Si       0.54585    0.69625    0.55666    1.000
    Si3318   Si       0.56117    0.75091    0.51891    1.000
    N3319    N        0.52434    0.67831    0.52175    1.000
    N3320    N        0.52437    0.74149    0.49748    1.000
    Si3321   Si       0.55398    0.66116    0.49597    1.000
    Si3322   Si       0.56956    0.66335    0.61648    1.000
    N3323    N        0.57654    0.52254    0.72336    1.000
    N3324    N        0.52482    0.56680    0.69798    1.000
    Si3325   Si       0.53578    0.52712    0.71087    1.000
    N3326    N        0.55253    0.55892    0.62670    1.000
    Si3327   Si       0.53678    0.60367    0.72055    1.000
    Si3328   Si       0.57349    0.53990    0.66174    1.000
    N3329    N        0.55203    0.63207    0.69400    1.000
    N3330    N        0.56989    0.58753    0.74540    1.000
    N3331    N        0.55882    0.70135    0.64253    1.000
    Si3332   Si       0.52574    0.71759    0.66836    1.000
    N3333    N        0.54035    0.73517    0.70571    1.000
    Si3334   Si       0.55272    0.60214    0.78079    1.000
    N3335    N        0.53628    0.57623    0.81320    1.000
    Si3336   Si       0.54198    0.59365    0.85237    1.000
    N3337    N        0.53026    0.63677    0.85208    1.000
    N3338    N        0.52132    0.56190    0.87354    1.000
    N3339    N        0.57260    0.63388    0.80047    1.000
    Si3340   Si       0.56098    0.73819    0.81319    1.000
    Si3341   Si       0.55803    0.66074    0.82883    1.000
    N3342    N        0.54050    0.69941    0.81856    1.000
    Si3343   Si       0.53819    0.74463    0.75136    1.000
    N3344    N        0.57670    0.73052    0.77092    1.000
    N3345    N        0.55908    0.57599    0.93472    1.000
    Si3346   Si       0.55340    0.61357    0.91025    1.000
    N3347    N        0.54888    0.53641    0.98530    1.000
    Si3348   Si       0.52738    0.56689    0.96344    1.000
    N3349    N        0.58069    0.64461    0.92295    1.000
    Si3350   Si       0.53181    0.73795    0.88873    1.000
    Si3351   Si       0.56950    0.65930    0.96104    1.000
    N3352    N        0.52589    0.67249    0.96639    1.000
    N3353    N        0.54059    0.69527    0.89299    1.000
    Si3354   Si       0.56888    0.73750    0.95435    1.000
    N3355    N        0.53571    0.74061    0.98158    1.000
    N3356    N        0.55789    0.75742    0.91801    1.000
    N3357    N        0.54058    0.87528    0.05615    1.000
    N3358    N        0.52591    0.80000    0.02702    1.000
    N3359    N        0.55405    0.92649    0.10340    1.000
    Si3360   Si       0.52222    0.90756    0.07958    1.000
    Si3361   Si       0.54235    0.00266    0.07401    1.000
    N3362    N        0.52133    0.00742    0.03431    1.000
    N3363    N        0.55894    0.82376    0.13250    1.000
    Si3364   Si       0.53165    0.79050    0.12993    1.000
    N3365    N        0.56255    0.79549    0.22650    1.000
    Si3366   Si       0.56535    0.86103    0.15387    1.000
    Si3367   Si       0.57111    0.83651    0.23341    1.000
    N3368    N        0.56194    0.75882    0.12244    1.000
    N3369    N        0.52334    0.86932    0.15996    1.000
    N3370    N        0.52871    0.85017    0.24665    1.000
    N3371    N        0.57781    0.88913    0.23731    1.000
    Si3372   Si       0.53894    0.95645    0.12827    1.000
    N3373    N        0.57396    0.90422    0.17232    1.000
    N3374    N        0.57360    0.97513    0.14534    1.000
    N3375    N        0.54638    0.99736    0.20760    1.000
    Si3376   Si       0.53166    0.90848    0.18011    1.000
    N3377    N        0.54273    0.78445    0.29243    1.000
    Si3378   Si       0.53370    0.83178    0.35729    1.000
    N3379    N        0.56490    0.84416    0.32785    1.000
    N3380    N        0.53335    0.78802    0.36360    1.000
    Si3381   Si       0.53384    0.77543    0.25153    1.000
    Si3382   Si       0.52010    0.76867    0.32575    1.000
    Si3383   Si       0.57493    0.88433    0.31733    1.000
    N3384    N        0.54190    0.90229    0.29652    1.000
    N3385    N        0.55846    0.96321    0.31982    1.000
    Si3386   Si       0.56566    0.98733    0.28447    1.000
    Si3387   Si       0.52561    0.93379    0.32526    1.000
    Si3388   Si       0.53709    0.89285    0.25146    1.000
    N3389    N        0.52849    0.00528    0.27118    1.000
    Si3390   Si       0.52587    0.84638    0.47887    1.000
    N3391    N        0.55999    0.81845    0.47475    1.000
    N3392    N        0.54298    0.85301    0.39450    1.000
    N3393    N        0.54988    0.87743    0.45964    1.000
    Si3394   Si       0.56976    0.84650    0.43047    1.000
    Si3395   Si       0.57229    0.78265    0.45155    1.000
    Si3396   Si       0.55590    0.91981    0.45803    1.000
    N3397    N        0.55333    0.99697    0.43620    1.000
    Si3398   Si       0.52683    0.98454    0.47082    1.000
    N3399    N        0.55302    0.92816    0.41174    1.000
    N3400    N        0.52626    0.94280    0.47967    1.000
    Si3401   Si       0.56527    0.89297    0.38841    1.000
    Si3402   Si       0.55065    0.87058    0.54257    1.000
    N3403    N        0.55664    0.86118    0.58513    1.000
    N3404    N        0.53429    0.79729    0.59852    1.000
    N3405    N        0.57207    0.78738    0.54317    1.000
    Si3406   Si       0.57582    0.78718    0.58761    1.000
    N3407    N        0.52110    0.84673    0.52027    1.000
    Si3408   Si       0.52485    0.83943    0.60729    1.000
    N3409    N        0.55223    0.97334    0.57295    1.000
    Si3410   Si       0.54717    0.94623    0.60676    1.000
    N3411    N        0.54261    0.00122    0.50695    1.000
    N3412    N        0.52352    0.90655    0.54400    1.000
    Si3413   Si       0.56735    0.83815    0.66814    1.000
    N3414    N        0.55393    0.79561    0.66782    1.000
    N3415    N        0.55309    0.85148    0.70892    1.000
    N3416    N        0.55556    0.78848    0.73592    1.000
    Si3417   Si       0.56629    0.77023    0.69887    1.000
    N3418    N        0.53028    0.85279    0.64731    1.000
    Si3419   Si       0.52926    0.82358    0.73077    1.000
    Si3420   Si       0.56349    0.01130    0.64727    1.000
    N3421    N        0.55326    0.91569    0.67882    1.000
    Si3422   Si       0.53192    0.95792    0.68308    1.000
    N3423    N        0.55009    0.97077    0.64409    1.000
    N3424    N        0.53966    0.98916    0.71474    1.000
    Si3425   Si       0.55747    0.89464    0.71819    1.000
    Si3426   Si       0.52008    0.89450    0.65181    1.000
    Si3427   Si       0.54434    0.85892    0.80214    1.000
    N3428    N        0.54598    0.83182    0.83667    1.000
    Si3429   Si       0.52554    0.79558    0.85062    1.000
    Si3430   Si       0.56888    0.84984    0.86827    1.000
    N3431    N        0.52264    0.83629    0.77149    1.000
    N3432    N        0.54869    0.75781    0.85560    1.000
    N3433    N        0.52829    0.75968    0.79074    1.000
    Si3434   Si       0.53064    0.91511    0.84993    1.000
    N3435    N        0.54710    0.95857    0.78486    1.000
    N3436    N        0.54685    0.95579    0.85594    1.000
    Si3437   Si       0.53928    0.98282    0.82247    1.000
    N3438    N        0.52850    0.89785    0.81051    1.000
    N3439    N        0.52919    0.80831    0.95730    1.000
    Si3440   Si       0.54655    0.80047    0.92092    1.000
    N3441    N        0.53123    0.87956    0.94249    1.000
    N3442    N        0.57606    0.82989    0.90641    1.000
    Si3443   Si       0.55772    0.90173    0.91672    1.000
    Si3444   Si       0.56915    0.96679    0.88907    1.000
    N3445    N        0.55660    0.89049    0.87555    1.000
    N3446    N        0.55686    0.00579    0.90123    1.000
    Si3447   Si       0.52440    0.96047    0.95647    1.000
    N3448    N        0.54256    0.94407    0.91664    1.000
    N3449    N        0.57143    0.89378    0.99689    1.000
    N3450    N        0.54735    0.99639    0.96947    1.000
    Si3451   Si       0.53157    0.89283    0.98428    1.000
    N3452    N        0.60323    0.06254    0.09880    1.000
    Si3453   Si       0.60607    0.11176    0.02145    1.000
    Si3454   Si       0.61244    0.01220    0.05317    1.000
    N3455    N        0.58114    0.03574    0.03238    1.000
    N3456    N        0.63420    0.08381    0.03574    1.000
    N3457    N        0.62347    0.14926    0.01171    1.000
    Si3458   Si       0.58775    0.24249    0.09916    1.000
    N3459    N        0.62121    0.15148    0.11358    1.000
    N3460    N        0.60919    0.21318    0.11872    1.000
    N3461    N        0.58071    0.04472    0.16794    1.000
    Si3462   Si       0.61377    0.04988    0.13906    1.000
    N3463    N        0.62187    0.11125    0.21921    1.000
    Si3464   Si       0.58829    0.13344    0.20408    1.000
    Si3465   Si       0.59775    0.17818    0.14054    1.000
    N3466    N        0.60223    0.17023    0.18537    1.000
    Si3467   Si       0.62831    0.19564    0.21091    1.000
    N3468    N        0.61227    0.23541    0.20816    1.000
    Si3469   Si       0.59687    0.11137    0.30982    1.000
    N3470    N        0.62698    0.08124    0.32289    1.000
    Si3471   Si       0.61588    0.05417    0.29068    1.000
    N3472    N        0.59537    0.01681    0.29337    1.000
    N3473    N        0.58616    0.08369    0.27631    1.000
    Si3474   Si       0.59845    0.18619    0.27751    1.000
    N3475    N        0.60192    0.15569    0.30896    1.000
    Si3476   Si       0.59278    0.18722    0.34007    1.000
    N3477    N        0.62935    0.20220    0.35545    1.000
    N3478    N        0.58270    0.21726    0.30889    1.000
    N3479    N        0.63293    0.17940    0.25146    1.000
    Si3480   Si       0.62464    0.08288    0.40730    1.000
    Si3481   Si       0.60165    0.08988    0.47928    1.000
    N3482    N        0.60305    0.04638    0.40451    1.000
    N3483    N        0.58961    0.04731    0.47127    1.000
    N3484    N        0.60975    0.12332    0.39479    1.000
    Si3485   Si       0.62313    0.01817    0.47181    1.000
    N3486    N        0.62945    0.10370    0.44829    1.000
    Si3487   Si       0.62341    0.00715    0.39560    1.000
    N3488    N        0.58775    0.25070    0.46147    1.000
    N3489    N        0.61159    0.17621    0.45034    1.000
    Si3490   Si       0.62057    0.22019    0.45329    1.000
    Si3491   Si       0.58018    0.15638    0.47684    1.000
    Si3492   Si       0.62853    0.14369    0.42813    1.000
    Si3493   Si       0.61788    0.23542    0.38127    1.000
    N3494    N        0.61364    0.07996    0.58807    1.000
    N3495    N        0.61697    0.09210    0.51928    1.000
    Si3496   Si       0.62188    0.06051    0.54994    1.000
    Si3497   Si       0.60677    0.12205    0.59177    1.000
    N3498    N        0.58815    0.03328    0.54308    1.000
    N3499    N        0.58636    0.02257    0.61415    1.000
    Si3500   Si       0.63520    0.13206    0.52413    1.000
    N3501    N        0.60220    0.15957    0.51596    1.000
    Si3502   Si       0.59790    0.23930    0.57416    1.000
    N3503    N        0.60770    0.19760    0.57813    1.000
    N3504    N        0.60462    0.24679    0.53174    1.000
    Si3505   Si       0.58117    0.17591    0.55096    1.000
    Si3506   Si       0.60308    0.05990    0.62365    1.000
    N3507    N        0.60730    0.12989    0.63553    1.000
    Si3508   Si       0.63665    0.01296    0.67286    1.000
    Si3509   Si       0.57934    0.08807    0.73263    1.000
    N3510    N        0.61881    0.08628    0.74545    1.000
    Si3511   Si       0.62622    0.23840    0.73926    1.000
    N3512    N        0.62651    0.23160    0.66041    1.000
    N3513    N        0.58667    0.22778    0.71923    1.000
    Si3514   Si       0.58579    0.22877    0.67709    1.000
    Si3515   Si       0.61826    0.09106    0.83942    1.000
    Si3516   Si       0.61272    0.03353    0.81469    1.000
    N3517    N        0.59029    0.07209    0.81176    1.000
    N3518    N        0.61032    0.12000    0.87116    1.000
    N3519    N        0.60408    0.24013    0.77656    1.000
    N3520    N        0.59542    0.18804    0.83294    1.000
    N3521    N        0.61628    0.15738    0.76500    1.000
    Si3522   Si       0.58624    0.16723    0.79477    1.000
    Si3523   Si       0.62967    0.21034    0.84813    1.000
    Si3524   Si       0.58176    0.15003    0.85642    1.000
    N3525    N        0.59795    0.10069    0.97842    1.000
    Si3526   Si       0.62148    0.07123    0.95286    1.000
    N3527    N        0.58327    0.05336    0.94251    1.000
    N3528    N        0.61365    0.21273    0.99374    1.000
    Si3529   Si       0.63152    0.25606    0.98795    1.000
    Si3530   Si       0.61124    0.14122    0.96770    1.000
    N3531    N        0.61937    0.21484    0.88906    1.000
    Si3532   Si       0.57821    0.21114    0.89578    1.000
    N3533    N        0.60902    0.32888    0.04099    1.000
    Si3534   Si       0.61959    0.30954    0.07895    1.000
    N3535    N        0.60128    0.33127    0.11086    1.000
    N3536    N        0.61846    0.26517    0.07596    1.000
    Si3537   Si       0.59837    0.31425    0.00118    1.000
    Si3538   Si       0.61390    0.37173    0.11997    1.000
    Si3539   Si       0.63500    0.36231    0.05271    1.000
    N3540    N        0.59042    0.27175    0.00294    1.000
    N3541    N        0.62077    0.39151    0.08069    1.000
    Si3542   Si       0.61765    0.43372    0.08201    1.000
    N3543    N        0.59932    0.39214    0.00132    1.000
    Si3544   Si       0.63155    0.41796    0.01563    1.000
    N3545    N        0.63389    0.44886    0.04480    1.000
    Si3546   Si       0.58255    0.30575    0.14067    1.000
    N3547    N        0.61446    0.29654    0.16889    1.000
    N3548    N        0.63332    0.29946    0.23726    1.000
    Si3549   Si       0.63398    0.27439    0.19950    1.000
    Si3550   Si       0.61868    0.43038    0.16251    1.000
    Si3551   Si       0.61881    0.40510    0.23579    1.000
    Si3552   Si       0.62025    0.49498    0.18176    1.000
    N3553    N        0.59304    0.46071    0.17940    1.000
    N3554    N        0.59304    0.40041    0.14501    1.000
    N3555    N        0.63583    0.40571    0.19696    1.000
    N3556    N        0.57708    0.39791    0.24259    1.000
    Si3557   Si       0.62502    0.35436    0.29204    1.000
    N3558    N        0.59269    0.34070    0.34911    1.000
    Si3559   Si       0.62817    0.31556    0.34862    1.000
    N3560    N        0.58470    0.33679    0.27999    1.000
    Si3561   Si       0.59352    0.30273    0.25195    1.000
    N3562    N        0.62968    0.27474    0.36751    1.000
    Si3563   Si       0.59985    0.38212    0.35569    1.000
    N3564    N        0.62299    0.38801    0.31930    1.000
    Si3565   Si       0.60193    0.46744    0.27851    1.000
    N3566    N        0.59975    0.44899    0.31818    1.000
    N3567    N        0.63029    0.43830    0.26295    1.000
    N3568    N        0.61426    0.50977    0.28136    1.000
    N3569    N        0.62892    0.39508    0.38413    1.000
    Si3570   Si       0.58043    0.49361    0.41421    1.000
    N3571    N        0.59149    0.48342    0.45721    1.000
    N3572    N        0.63255    0.43153    0.48023    1.000
    Si3573   Si       0.60381    0.50692    0.49226    1.000
    Si3574   Si       0.63130    0.43842    0.38381    1.000
    Si3575   Si       0.59021    0.44122    0.47462    1.000
    N3576    N        0.59457    0.46303    0.38657    1.000
    Si3577   Si       0.61956    0.34123    0.52105    1.000
    N3578    N        0.61987    0.26795    0.59963    1.000
    N3579    N        0.58992    0.37443    0.51261    1.000
    N3580    N        0.62525    0.33214    0.56216    1.000
    Si3581   Si       0.58459    0.26854    0.50117    1.000
    N3582    N        0.59444    0.31023    0.49854    1.000
    N3583    N        0.63286    0.38593    0.61364    1.000
    N3584    N        0.59375    0.50239    0.57962    1.000
    Si3585   Si       0.61351    0.42295    0.59990    1.000
    Si3586   Si       0.63115    0.48769    0.56312    1.000
    N3587    N        0.63082    0.48873    0.51892    1.000
    Si3588   Si       0.60911    0.32216    0.69422    1.000
    N3589    N        0.59732    0.31051    0.73560    1.000
    Si3590   Si       0.61148    0.26955    0.64024    1.000
    N3591    N        0.63194    0.30520    0.65748    1.000
    N3592    N        0.60302    0.46285    0.69978    1.000
    Si3593   Si       0.59173    0.46972    0.65697    1.000
    N3594    N        0.62057    0.44167    0.63707    1.000
    Si3595   Si       0.60866    0.42068    0.71096    1.000
    Si3596   Si       0.59738    0.48547    0.73520    1.000
    Si3597   Si       0.61744    0.27020    0.80599    1.000
    N3598    N        0.58004    0.27576    0.82707    1.000
    Si3599   Si       0.57648    0.28478    0.87082    1.000
    Si3600   Si       0.60558    0.45165    0.84974    1.000
    N3601    N        0.61486    0.41786    0.75473    1.000
    N3602    N        0.63230    0.48331    0.83769    1.000
    N3603    N        0.58341    0.43070    0.82024    1.000
    N3604    N        0.63082    0.49253    0.75794    1.000
    Si3605   Si       0.57908    0.42870    0.77741    1.000
    N3606    N        0.63450    0.30925    0.97912    1.000
    Si3607   Si       0.58218    0.35951    0.89148    1.000
    N3608    N        0.61447    0.28414    0.89554    1.000
    N3609    N        0.62459    0.35547    0.88009    1.000
    N3610    N        0.58068    0.36406    0.93508    1.000
    N3611    N        0.60808    0.50077    0.98261    1.000
    Si3612   Si       0.60536    0.39346    0.95680    1.000
    N3613    N        0.59547    0.43116    0.93967    1.000
    Si3614   Si       0.61804    0.46606    0.95588    1.000
    N3615    N        0.57593    0.46301    0.87826    1.000
    Si3616   Si       0.61383    0.56812    0.07724    1.000
    N3617    N        0.60007    0.60113    0.05206    1.000
    Si3618   Si       0.61028    0.60567    0.01058    1.000
    N3619    N        0.63143    0.53581    0.05653    1.000
    Si3620   Si       0.63191    0.52715    0.01264    1.000
    N3621    N        0.61551    0.56459    0.99503    1.000
    N3622    N        0.58623    0.67027    0.04433    1.000
    N3623    N        0.59916    0.64552    0.10760    1.000
    N3624    N        0.60850    0.72170    0.09102    1.000
    Si3625   Si       0.58760    0.68825    0.11045    1.000
    Si3626   Si       0.62951    0.67317    0.03098    1.000
    Si3627   Si       0.58412    0.75519    0.08664    1.000
    N3628    N        0.59313    0.51599    0.15563    1.000
    N3629    N        0.60421    0.58462    0.15407    1.000
    Si3630   Si       0.60469    0.62666    0.14413    1.000
    N3631    N        0.62623    0.51850    0.21935    1.000
    Si3632   Si       0.59988    0.53697    0.24904    1.000
    N3633    N        0.58902    0.69979    0.21980    1.000
    N3634    N        0.58173    0.63597    0.24418    1.000
    N3635    N        0.59043    0.70176    0.14936    1.000
    N3636    N        0.58545    0.64552    0.17842    1.000
    Si3637   Si       0.60733    0.68461    0.18457    1.000
    Si3638   Si       0.57793    0.74210    0.15883    1.000
    N3639    N        0.61518    0.57766    0.25830    1.000
    N3640    N        0.59013    0.62630    0.31158    1.000
    Si3641   Si       0.62830    0.62300    0.33163    1.000
    Si3642   Si       0.58411    0.60381    0.27446    1.000
    N3643    N        0.63506    0.62797    0.37448    1.000
    N3644    N        0.60324    0.69229    0.34798    1.000
    Si3645   Si       0.59697    0.67701    0.25597    1.000
    N3646    N        0.62325    0.54163    0.47238    1.000
    N3647    N        0.58792    0.53483    0.40408    1.000
    N3648    N        0.61829    0.59666    0.42713    1.000
    Si3649   Si       0.60015    0.55877    0.43800    1.000
    Si3650   Si       0.59758    0.61975    0.39549    1.000
    Si3651   Si       0.58038    0.69576    0.38429    1.000
    Si3652   Si       0.59969    0.68323    0.44194    1.000
    N3653    N        0.63205    0.71421    0.48556    1.000
    N3654    N        0.60486    0.71640    0.41463    1.000
    N3655    N        0.63540    0.66040    0.44832    1.000
    N3656    N        0.60971    0.58277    0.52085    1.000
    Si3657   Si       0.60204    0.61820    0.54700    1.000
    N3658    N        0.61896    0.56731    0.60873    1.000
    Si3659   Si       0.61895    0.52486    0.61058    1.000
    N3660    N        0.63457    0.62786    0.57521    1.000
    Si3661   Si       0.57936    0.58874    0.61231    1.000
    Si3662   Si       0.60647    0.69116    0.51338    1.000
    N3663    N        0.60393    0.68443    0.60126    1.000
    N3664    N        0.58783    0.65114    0.51997    1.000
    N3665    N        0.59819    0.75535    0.60803    1.000
    N3666    N        0.58003    0.71502    0.53680    1.000
    N3667    N        0.57947    0.62580    0.63440    1.000
    Si3668   Si       0.59072    0.61585    0.67677    1.000
    Si3669   Si       0.59513    0.56091    0.72418    1.000
    N3670    N        0.59286    0.57305    0.68121    1.000
    N3671    N        0.62571    0.63527    0.69023    1.000
    N3672    N        0.63466    0.55542    0.74006    1.000
    N3673    N        0.60484    0.51113    0.64848    1.000
    Si3674   Si       0.59900    0.71721    0.62887    1.000
    Si3675   Si       0.62761    0.72009    0.69729    1.000
    N3676    N        0.61518    0.69082    0.72867    1.000
    N3677    N        0.63265    0.71295    0.65463    1.000
    Si3678   Si       0.62307    0.52577    0.84549    1.000
    Si3679   Si       0.61218    0.62453    0.86690    1.000
    N3680    N        0.63127    0.61299    0.82834    1.000
    N3681    N        0.58405    0.52955    0.86701    1.000
    N3682    N        0.63320    0.62170    0.75792    1.000
    N3683    N        0.63064    0.54756    0.80892    1.000
    Si3684   Si       0.61712    0.63666    0.79498    1.000
    N3685    N        0.60213    0.73620    0.82991    1.000
    N3686    N        0.59321    0.66382    0.85820    1.000
    Si3687   Si       0.62014    0.69567    0.84024    1.000
    Si3688   Si       0.61242    0.70917    0.76754    1.000
    N3689    N        0.62063    0.68090    0.79841    1.000
    N3690    N        0.60716    0.53852    0.92861    1.000
    Si3691   Si       0.59039    0.54036    0.96814    1.000
    N3692    N        0.58140    0.63076    0.99057    1.000
    Si3693   Si       0.58245    0.55911    0.89974    1.000
    N3694    N        0.57845    0.59812    0.87779    1.000
    N3695    N        0.61018    0.71757    0.88878    1.000
    Si3696   Si       0.59101    0.75460    0.87123    1.000
    Si3697   Si       0.58310    0.68403    0.90119    1.000
    N3698    N        0.58865    0.69712    0.95054    1.000
    Si3699   Si       0.62917    0.71450    0.96219    1.000
    N3700    N        0.60692    0.75397    0.96780    1.000
    N3701    N        0.60662    0.85031    0.04347    1.000
    N3702    N        0.60330    0.79454    0.08075    1.000
    N3703    N        0.59786    0.87176    0.11401    1.000
    Si3704   Si       0.59582    0.82761    0.10692    1.000
    Si3705   Si       0.63484    0.79483    0.05009    1.000
    Si3706   Si       0.58002    0.88170    0.03792    1.000
    N3707    N        0.60042    0.91820    0.05333    1.000
    Si3708   Si       0.59303    0.91193    0.09722    1.000
    N3709    N        0.62689    0.93819    0.11133    1.000
    N3710    N        0.58564    0.99275    0.08356    1.000
    N3711    N        0.62547    0.98572    0.02146    1.000
    Si3712   Si       0.60590    0.97703    0.11762    1.000
    Si3713   Si       0.63104    0.94355    0.03268    1.000
    N3714    N        0.61144    0.76557    0.17399    1.000
    Si3715   Si       0.61736    0.81093    0.17696    1.000
    N3716    N        0.59006    0.84382    0.19098    1.000
    N3717    N        0.62736    0.82514    0.13782    1.000
    Si3718   Si       0.60339    0.88832    0.20038    1.000
    Si3719   Si       0.62085    0.96635    0.23431    1.000
    N3720    N        0.61530    0.98845    0.19736    1.000
    N3721    N        0.63072    0.92328    0.22454    1.000
    N3722    N        0.63138    0.00912    0.13511    1.000
    Si3723   Si       0.57897    0.00256    0.17988    1.000
    N3724    N        0.59777    0.83267    0.27069    1.000
    N3725    N        0.60734    0.78731    0.32335    1.000
    Si3726   Si       0.63443    0.85093    0.28629    1.000
    Si3727   Si       0.57833    0.81078    0.30213    1.000
    N3728    N        0.61664    0.89253    0.29698    1.000
    Si3729   Si       0.59289    0.95306    0.34656    1.000
    Si3730   Si       0.60362    0.91382    0.26146    1.000
    N3731    N        0.58982    0.95566    0.26168    1.000
    N3732    N        0.63437    0.95279    0.33463    1.000
    N3733    N        0.58239    0.90801    0.35218    1.000
    N3734    N        0.58887    0.76199    0.48547    1.000
    N3735    N        0.58845    0.80930    0.42034    1.000
    N3736    N        0.59701    0.87708    0.41205    1.000
    Si3737   Si       0.63328    0.76171    0.48753    1.000
    Si3738   Si       0.63069    0.80104    0.40902    1.000
    N3739    N        0.63582    0.76656    0.38082    1.000
    N3740    N        0.59176    0.94116    0.46340    1.000
    N3741    N        0.59472    0.97504    0.38315    1.000
    Si3742   Si       0.58315    0.96455    0.42534    1.000
    N3743    N        0.62310    0.99217    0.43767    1.000
    N3744    N        0.58922    0.85765    0.52483    1.000
    N3745    N        0.60794    0.81610    0.59458    1.000
    Si3746   Si       0.59570    0.85799    0.60249    1.000
    Si3747   Si       0.58812    0.81387    0.50997    1.000
    Si3748   Si       0.62327    0.88285    0.53690    1.000
    N3749    N        0.62498    0.88116    0.58067    1.000
    Si3750   Si       0.63252    0.78300    0.61009    1.000
    N3751    N        0.62868    0.80622    0.50046    1.000
    Si3752   Si       0.61591    0.92850    0.58062    1.000
    N3753    N        0.61103    0.92649    0.53503    1.000
    N3754    N        0.62069    0.97330    0.58296    1.000
    Si3755   Si       0.58955    0.00099    0.57445    1.000
    N3756    N        0.58555    0.92392    0.61166    1.000
    N3757    N        0.62590    0.99042    0.50589    1.000
    Si3758   Si       0.62046    0.94846    0.49676    1.000
    Si3759   Si       0.62806    0.86567    0.67207    1.000
    N3760    N        0.60931    0.82484    0.68308    1.000
    N3761    N        0.59228    0.86730    0.64394    1.000
    Si3762   Si       0.63360    0.78895    0.68817    1.000
    N3763    N        0.60649    0.75781    0.69602    1.000
    Si3764   Si       0.57985    0.00599    0.71907    1.000
    N3765    N        0.62413    0.91199    0.67679    1.000
    N3766    N        0.59347    0.90634    0.73903    1.000
    Si3767   Si       0.58758    0.91195    0.65322    1.000
    Si3768   Si       0.63318    0.90752    0.72240    1.000
    N3769    N        0.59489    0.00736    0.67962    1.000
    Si3770   Si       0.61558    0.83983    0.81581    1.000
    N3771    N        0.61209    0.84749    0.85845    1.000
    N3772    N        0.61642    0.79993    0.80341    1.000
    N3773    N        0.58758    0.86598    0.79507    1.000
    Si3774   Si       0.63142    0.76073    0.80746    1.000
    Si3775   Si       0.58974    0.96951    0.78729    1.000
    Si3776   Si       0.60940    0.90086    0.78215    1.000
    N3777    N        0.60745    0.93540    0.80756    1.000
    Si3778   Si       0.62786    0.94488    0.84436    1.000
    N3779    N        0.58656    0.00027    0.81544    1.000
    N3780    N        0.60313    0.98594    0.74907    1.000
    N3781    N        0.62050    0.78560    0.87756    1.000
    Si3782   Si       0.62046    0.82490    0.89926    1.000
    N3783    N        0.63357    0.86721    0.97694    1.000
    N3784    N        0.61560    0.99296    0.94635    1.000
    N3785    N        0.59854    0.90494    0.93061    1.000
    N3786    N        0.63432    0.92948    0.99236    1.000
    N3787    N        0.61243    0.96197    0.88298    1.000
    Si3788   Si       0.63535    0.90603    0.90588    1.000
    Si3789   Si       0.60779    0.90116    0.97351    1.000
    Si3790   Si       0.63973    0.00018    0.98168    1.000
    N3791    N        0.66567    0.09618    0.09763    1.000
    N3792    N        0.64998    0.02765    0.06863    1.000
    Si3793   Si       0.66256    0.06938    0.00692    1.000
    Si3794   Si       0.64077    0.07158    0.07566    1.000
    Si3795   Si       0.69278    0.03324    0.06346    1.000
    N3796    N        0.68623    0.25424    0.08310    1.000
    N3797    N        0.66540    0.25314    0.01562    1.000
    Si3798   Si       0.65277    0.24433    0.05780    1.000
    N3799    N        0.64415    0.20247    0.05588    1.000
    Si3800   Si       0.64142    0.18717    0.01631    1.000
    N3801    N        0.67573    0.19641    0.12050    1.000
    Si3802   Si       0.63989    0.18792    0.09728    1.000
    Si3803   Si       0.64249    0.11766    0.12856    1.000
    Si3804   Si       0.66954    0.02203    0.23942    1.000
    Si3805   Si       0.67271    0.09433    0.17735    1.000
    N3806    N        0.68530    0.09248    0.21872    1.000
    N3807    N        0.67701    0.01798    0.19509    1.000
    Si3808   Si       0.64944    0.09460    0.24638    1.000
    N3809    N        0.63786    0.08168    0.15421    1.000
    N3810    N        0.66922    0.13587    0.15927    1.000
    Si3811   Si       0.69087    0.23071    0.20679    1.000
    N3812    N        0.67970    0.23300    0.24751    1.000
    Si3813   Si       0.68556    0.17475    0.15761    1.000
    N3814    N        0.66661    0.19914    0.18817    1.000
    N3815    N        0.65896    0.12005    0.28239    1.000
    Si3816   Si       0.66460    0.10364    0.32183    1.000
    Si3817   Si       0.68412    0.05062    0.36494    1.000
    N3818    N        0.64867    0.05394    0.26105    1.000
    N3819    N        0.65713    0.01587    0.37014    1.000
    N3820    N        0.66996    0.13773    0.34947    1.000
    Si3821   Si       0.66856    0.18214    0.34363    1.000
    Si3822   Si       0.66909    0.16211    0.26971    1.000
    N3823    N        0.68178    0.18792    0.30303    1.000
    N3824    N        0.68418    0.25685    0.31040    1.000
    Si3825   Si       0.68279    0.12038    0.38690    1.000
    N3826    N        0.66390    0.07939    0.39098    1.000
    N3827    N        0.65809    0.03946    0.48384    1.000
    Si3828   Si       0.67367    0.11600    0.45678    1.000
    Si3829   Si       0.68081    0.25751    0.46556    1.000
    Si3830   Si       0.68494    0.22585    0.40497    1.000
    N3831    N        0.65119    0.23319    0.48604    1.000
    N3832    N        0.67021    0.14184    0.42272    1.000
    N3833    N        0.64245    0.22856    0.41642    1.000
    N3834    N        0.66000    0.03718    0.55276    1.000
    Si3835   Si       0.69212    0.03772    0.58502    1.000
    N3836    N        0.68931    0.07510    0.60577    1.000
    N3837    N        0.67110    0.12421    0.49921    1.000
    Si3838   Si       0.66512    0.01118    0.51882    1.000
    Si3839   Si       0.65046    0.23673    0.52918    1.000
    Si3840   Si       0.64663    0.17900    0.58291    1.000
    N3841    N        0.66962    0.20588    0.55476    1.000
    N3842    N        0.63906    0.13980    0.56602    1.000
    N3843    N        0.65953    0.17161    0.62392    1.000
    N3844    N        0.66929    0.10888    0.66762    1.000
    Si3845   Si       0.67427    0.07272    0.64626    1.000
    N3846    N        0.65488    0.02120    0.71458    1.000
    Si3847   Si       0.68932    0.11048    0.70950    1.000
    N3848    N        0.69099    0.07249    0.73045    1.000
    N3849    N        0.63752    0.04990    0.65006    1.000
    N3850    N        0.67160    0.13339    0.74213    1.000
    N3851    N        0.64102    0.16793    0.68766    1.000
    Si3852   Si       0.65412    0.19939    0.66081    1.000
    Si3853   Si       0.64284    0.14194    0.65317    1.000
    N3854    N        0.65503    0.20739    0.74264    1.000
    Si3855   Si       0.64309    0.16677    0.73119    1.000
    N3856    N        0.64447    0.02786    0.78212    1.000
    N3857    N        0.64437    0.11279    0.81153    1.000
    Si3858   Si       0.63800    0.11803    0.76952    1.000
    Si3859   Si       0.65020    0.05598    0.74687    1.000
    N3860    N        0.67629    0.12397    0.87548    1.000
    N3861    N        0.63936    0.05120    0.84691    1.000
    N3862    N        0.64205    0.24753    0.83242    1.000
    Si3863   Si       0.66875    0.13979    0.83394    1.000
    N3864    N        0.66095    0.18210    0.83899    1.000
    N3865    N        0.64120    0.07637    0.91366    1.000
    Si3866   Si       0.64137    0.11776    0.90073    1.000
    Si3867   Si       0.66279    0.04664    0.88652    1.000
    N3868    N        0.67967    0.10572    0.98545    1.000
    N3869    N        0.64241    0.04386    0.98021    1.000
    N3870    N        0.65005    0.24493    0.94676    1.000
    Si3871   Si       0.68322    0.14423    0.96814    1.000
    N3872    N        0.67239    0.18557    0.98529    1.000
    Si3873   Si       0.63797    0.24846    0.90675    1.000
    N3874    N        0.67823    0.24670    0.88753    1.000
    N3875    N        0.64466    0.14010    0.93979    1.000
    Si3876   Si       0.68085    0.21313    0.95573    1.000
    N3877    N        0.65753    0.33436    0.07849    1.000
    Si3878   Si       0.67783    0.34522    0.11454    1.000
    N3879    N        0.66097    0.38746    0.02769    1.000
    N3880    N        0.66910    0.50323    0.01338    1.000
    N3881    N        0.67486    0.48828    0.08339    1.000
    Si3882   Si       0.67090    0.47145    0.04321    1.000
    N3883    N        0.63615    0.44524    0.11924    1.000
    N3884    N        0.67769    0.33796    0.19821    1.000
    Si3885   Si       0.66496    0.37603    0.18230    1.000
    N3886    N        0.67567    0.26823    0.19146    1.000
    Si3887   Si       0.66393    0.33048    0.23840    1.000
    N3888    N        0.65050    0.36615    0.14209    1.000
    N3889    N        0.68874    0.30825    0.13419    1.000
    N3890    N        0.69436    0.44168    0.22923    1.000
    Si3891   Si       0.69094    0.46796    0.19585    1.000
    Si3892   Si       0.66784    0.47294    0.12917    1.000
    N3893    N        0.65518    0.46474    0.17228    1.000
    Si3894   Si       0.68399    0.29994    0.30025    1.000
    N3895    N        0.64642    0.32081    0.30943    1.000
    N3896    N        0.64000    0.36712    0.25253    1.000
    N3897    N        0.69694    0.31990    0.26316    1.000
    Si3898   Si       0.64045    0.42684    0.31602    1.000
    N3899    N        0.68026    0.48075    0.28728    1.000
    Si3900   Si       0.67210    0.44475    0.26408    1.000
    Si3901   Si       0.67700    0.48873    0.35384    1.000
    N3902    N        0.65443    0.45156    0.35026    1.000
    N3903    N        0.68091    0.41725    0.29625    1.000
    N3904    N        0.65257    0.32700    0.38345    1.000
    N3905    N        0.65740    0.37009    0.44084    1.000
    Si3906   Si       0.67064    0.33270    0.46140    1.000
    N3907    N        0.66371    0.29183    0.44419    1.000
    Si3908   Si       0.65925    0.28807    0.39954    1.000
    Si3909   Si       0.65985    0.36661    0.39803    1.000
    N3910    N        0.69443    0.26545    0.38540    1.000
    N3911    N        0.68160    0.48693    0.46772    1.000
    Si3912   Si       0.65640    0.41267    0.44929    1.000
    Si3913   Si       0.66027    0.46152    0.49759    1.000
    Si3914   Si       0.68806    0.47365    0.42654    1.000
    N3915    N        0.65721    0.44359    0.41830    1.000
    N3916    N        0.68115    0.50117    0.39458    1.000
    N3917    N        0.67012    0.32117    0.60472    1.000
    N3918    N        0.65935    0.27580    0.54384    1.000
    Si3919   Si       0.68307    0.30105    0.52025    1.000
    Si3920   Si       0.65194    0.35706    0.58775    1.000
    N3921    N        0.66169    0.33700    0.50511    1.000
    Si3922   Si       0.64505    0.29582    0.57999    1.000
    Si3923   Si       0.69104    0.36333    0.52641    1.000
    N3924    N        0.66836    0.38516    0.55539    1.000
    Si3925   Si       0.67728    0.42725    0.56111    1.000
    N3926    N        0.68922    0.44538    0.52411    1.000
    N3927    N        0.64057    0.44696    0.57398    1.000
    N3928    N        0.67481    0.36053    0.65917    1.000
    Si3929   Si       0.67218    0.31882    0.64821    1.000
    Si3930   Si       0.67112    0.37324    0.70293    1.000
    N3931    N        0.64524    0.26987    0.72010    1.000
    N3932    N        0.64544    0.33815    0.71251    1.000
    Si3933   Si       0.68834    0.27681    0.71073    1.000
    Si3934   Si       0.64369    0.30949    0.74515    1.000
    N3935    N        0.69176    0.30185    0.74497    1.000
    N3936    N        0.64251    0.40329    0.69193    1.000
    Si3937   Si       0.65039    0.40615    0.64817    1.000
    N3938    N        0.68575    0.45466    0.72484    1.000
    N3939    N        0.68655    0.43051    0.65082    1.000
    Si3940   Si       0.66064    0.33276    0.81483    1.000
    N3941    N        0.66370    0.30944    0.85156    1.000
    Si3942   Si       0.67845    0.26807    0.84835    1.000
    N3943    N        0.64288    0.37412    0.81495    1.000
    N3944    N        0.67328    0.38172    0.75397    1.000
    N3945    N        0.64140    0.30329    0.78805    1.000
    N3946    N        0.69224    0.37792    0.86645    1.000
    Si3947   Si       0.64860    0.38423    0.85905    1.000
    Si3948   Si       0.66582    0.45494    0.83359    1.000
    N3949    N        0.66681    0.43812    0.79390    1.000
    Si3950   Si       0.66737    0.46707    0.76111    1.000
    Si3951   Si       0.64708    0.40171    0.78208    1.000
    N3952    N        0.64082    0.42632    0.86359    1.000
    N3953    N        0.68740    0.50574    0.77628    1.000
    N3954    N        0.69200    0.46364    0.86465    1.000
    Si3955   Si       0.64131    0.31707    0.88703    1.000
    Si3956   Si       0.66149    0.33791    0.96239    1.000
    N3957    N        0.66880    0.32011    0.92173    1.000
    N3958    N        0.64756    0.37855    0.95445    1.000
    Si3959   Si       0.66527    0.45002    0.89486    1.000
    N3960    N        0.69000    0.42573    0.92074    1.000
    N3961    N        0.64150    0.47636    0.92004    1.000
    N3962    N        0.64685    0.43892    0.97885    1.000
    Si3963   Si       0.67439    0.41350    0.95855    1.000
    Si3964   Si       0.69504    0.51021    0.97991    1.000
    Si3965   Si       0.66379    0.52961    0.09246    1.000
    N3966    N        0.64658    0.57256    0.10657    1.000
    Si3967   Si       0.68624    0.58678    0.09994    1.000
    N3968    N        0.69218    0.62533    0.08459    1.000
    N3969    N        0.64381    0.63591    0.01392    1.000
    Si3970   Si       0.68184    0.63105    0.99420    1.000
    N3971    N        0.67856    0.74538    0.10072    1.000
    N3972    N        0.65580    0.68370    0.06520    1.000
    Si3973   Si       0.66682    0.73645    0.00989    1.000
    Si3974   Si       0.64895    0.72577    0.07705    1.000
    Si3975   Si       0.68910    0.66914    0.08728    1.000
    N3976    N        0.64611    0.75372    0.04362    1.000
    N3977    N        0.64162    0.70315    0.00144    1.000
    N3978    N        0.67027    0.51772    0.13552    1.000
    Si3979   Si       0.64876    0.58505    0.15146    1.000
    N3980    N        0.66382    0.56336    0.18533    1.000
    Si3981   Si       0.66519    0.53665    0.22034    1.000
    N3982    N        0.64814    0.63024    0.15067    1.000
    Si3983   Si       0.67411    0.66126    0.16030    1.000
    Si3984   Si       0.66442    0.69989    0.22740    1.000
    Si3985   Si       0.69656    0.72586    0.13483    1.000
    N3986    N        0.65246    0.68804    0.18666    1.000
    N3987    N        0.69054    0.68465    0.12738    1.000
    N3988    N        0.65648    0.74116    0.23593    1.000
    N3989    N        0.68345    0.75215    0.16989    1.000
    N3990    N        0.67605    0.54613    0.26491    1.000
    Si3991   Si       0.67788    0.56481    0.33662    1.000
    N3992    N        0.65979    0.52434    0.33244    1.000
    Si3993   Si       0.65740    0.58539    0.27093    1.000
    N3994    N        0.65098    0.59050    0.31469    1.000
    N3995    N        0.68619    0.61830    0.26225    1.000
    Si3996   Si       0.65577    0.51766    0.29028    1.000
    Si3997   Si       0.67046    0.65577    0.27894    1.000
    N3998    N        0.65106    0.73378    0.30952    1.000
    N3999    N        0.68176    0.69269    0.36155    1.000
    N4000    N        0.64665    0.65804    0.31598    1.000
    Si4001   Si       0.64513    0.69695    0.33455    1.000
    Si4002   Si       0.67449    0.75232    0.27475    1.000
    N4003    N        0.64144    0.67590    0.25418    1.000
    N4004    N        0.68050    0.57500    0.37809    1.000
    Si4005   Si       0.67774    0.61730    0.37871    1.000
    N4006    N        0.66244    0.60534    0.48444    1.000
    Si4007   Si       0.65185    0.61975    0.44535    1.000
    N4008    N        0.68743    0.62605    0.42186    1.000
    Si4009   Si       0.69444    0.52741    0.47636    1.000
    N4010    N        0.69652    0.55077    0.44195    1.000
    Si4011   Si       0.66091    0.69250    0.46033    1.000
    N4012    N        0.69280    0.68935    0.48882    1.000
    N4013    N        0.67464    0.71376    0.42598    1.000
    Si4014   Si       0.64179    0.73918    0.41494    1.000
    N4015    N        0.67743    0.54241    0.51470    1.000
    N4016    N        0.68150    0.58066    0.57719    1.000
    Si4017   Si       0.64837    0.59794    0.60140    1.000
    Si4018   Si       0.68989    0.53960    0.59159    1.000
    N4019    N        0.65484    0.51426    0.58818    1.000
    Si4020   Si       0.64595    0.56921    0.49985    1.000
    Si4021   Si       0.67126    0.71362    0.52107    1.000
    N4022    N        0.67610    0.68215    0.60269    1.000
    N4023    N        0.64190    0.68696    0.54190    1.000
    N4024    N        0.66864    0.75637    0.51053    1.000
    Si4025   Si       0.63892    0.66982    0.58083    1.000
    N4026    N        0.68321    0.60576    0.71070    1.000
    N4027    N        0.66973    0.60992    0.63807    1.000
    Si4028   Si       0.66705    0.62882    0.67671    1.000
    Si4029   Si       0.65911    0.59020    0.74267    1.000
    N4030    N        0.68049    0.66954    0.67581    1.000
    N4031    N        0.68001    0.66766    0.74366    1.000
    N4032    N        0.66819    0.73150    0.71025    1.000
    Si4033   Si       0.69182    0.69484    0.71132    1.000
    Si4034   Si       0.63819    0.65357    0.72984    1.000
    Si4035   Si       0.67265    0.69696    0.64235    1.000
    Si4036   Si       0.66895    0.76066    0.74270    1.000
    Si4037   Si       0.65808    0.58145    0.81526    1.000
    N4038    N        0.68037    0.57653    0.77871    1.000
    Si4039   Si       0.65028    0.52957    0.77238    1.000
    N4040    N        0.69365    0.58224    0.83987    1.000
    N4041    N        0.66018    0.69649    0.85649    1.000
    N4042    N        0.64000    0.74375    0.77000    1.000
    Si4043   Si       0.69580    0.68672    0.83487    1.000
    Si4044   Si       0.64373    0.51922    0.91764    1.000
    N4045    N        0.64447    0.61978    0.89511    1.000
    N4046    N        0.65366    0.53628    0.87761    1.000
    N4047    N        0.67088    0.52863    0.94985    1.000
    Si4048   Si       0.68088    0.61713    0.91731    1.000
    N4049    N        0.67360    0.60535    0.95988    1.000
    Si4050   Si       0.69297    0.55618    0.87405    1.000
    Si4051   Si       0.69692    0.68031    0.94334    1.000
    N4052    N        0.65763    0.69705    0.93145    1.000
    N4053    N        0.67828    0.75366    0.89842    1.000
    N4054    N        0.66885    0.75154    0.96986    1.000
    Si4055   Si       0.65246    0.71798    0.89314    1.000
    N4056    N        0.68005    0.86268    0.03033    1.000
    N4057    N        0.66839    0.81241    0.07274    1.000
    Si4058   Si       0.68590    0.85391    0.07208    1.000
    N4059    N        0.66220    0.87951    0.09824    1.000
    Si4060   Si       0.64076    0.84984    0.01565    1.000
    Si4061   Si       0.69516    0.78321    0.09023    1.000
    N4062    N        0.63879    0.80628    0.00824    1.000
    N4063    N        0.66651    0.94170    0.05645    1.000
    Si4064   Si       0.66377    0.92367    0.09600    1.000
    N4065    N        0.64965    0.80464    0.20350    1.000
    Si4066   Si       0.66872    0.81852    0.23829    1.000
    Si4067   Si       0.63789    0.86734    0.13353    1.000
    Si4068   Si       0.64865    0.76122    0.19611    1.000
    Si4069   Si       0.66331    0.91677    0.19365    1.000
    Si4070   Si       0.65120    0.99084    0.17306    1.000
    N4071    N        0.67246    0.95413    0.16898    1.000
    N4072    N        0.63784    0.88783    0.17044    1.000
    N4073    N        0.67071    0.79717    0.27555    1.000
    Si4074   Si       0.66873    0.85165    0.36005    1.000
    N4075    N        0.65656    0.84052    0.32114    1.000
    Si4076   Si       0.64396    0.76903    0.33771    1.000
    N4077    N        0.68621    0.78090    0.34239    1.000
    Si4078   Si       0.68952    0.81321    0.31480    1.000
    N4079    N        0.65948    0.86024    0.25296    1.000
    Si4080   Si       0.66600    0.97832    0.35052    1.000
    N4081    N        0.67752    0.92288    0.29520    1.000
    N4082    N        0.66239    0.89460    0.35902    1.000
    Si4083   Si       0.64513    0.91319    0.32312    1.000
    Si4084   Si       0.68304    0.96532    0.28087    1.000
    N4085    N        0.65499    0.98330    0.25420    1.000
    N4086    N        0.69529    0.95525    0.37345    1.000
    N4087    N        0.65268    0.83517    0.39612    1.000
    N4088    N        0.64260    0.86349    0.46084    1.000
    Si4089   Si       0.65707    0.83620    0.49225    1.000
    N4090    N        0.63903    0.77122    0.44359    1.000
    Si4091   Si       0.63852    0.87056    0.41889    1.000
    Si4092   Si       0.68767    0.91629    0.38951    1.000
    Si4093   Si       0.66784    0.89945    0.46428    1.000
    N4094    N        0.66148    0.90906    0.42254    1.000
    N4095    N        0.66396    0.93298    0.49008    1.000
    N4096    N        0.66128    0.86790    0.52244    1.000
    N4097    N        0.67138    0.77213    0.59219    1.000
    Si4098   Si       0.66266    0.88583    0.60375    1.000
    N4099    N        0.68470    0.00008    0.60599    1.000
    Si4100   Si       0.65162    0.97446    0.61295    1.000
    N4101    N        0.65701    0.92832    0.60678    1.000
    N4102    N        0.65187    0.86862    0.70959    1.000
    N4103    N        0.65207    0.78574    0.64964    1.000
    N4104    N        0.66062    0.86289    0.64230    1.000
    Si4105   Si       0.67753    0.83734    0.72528    1.000
    N4106    N        0.65962    0.79829    0.72223    1.000
    Si4107   Si       0.69059    0.76931    0.63322    1.000
    Si4108   Si       0.65884    0.93877    0.67584    1.000
    N4109    N        0.69275    0.91216    0.67539    1.000
    N4110    N        0.65284    0.94751    0.72154    1.000
    Si4111   Si       0.64673    0.98690    0.74312    1.000
    N4112    N        0.64871    0.97551    0.65681    1.000
    Si4113   Si       0.65690    0.86462    0.85738    1.000
    N4114    N        0.65380    0.86039    0.81317    1.000
    Si4115   Si       0.68031    0.87779    0.78509    1.000
    N4116    N        0.68032    0.82358    0.86710    1.000
    N4117    N        0.66922    0.76670    0.82904    1.000
    Si4118   Si       0.66539    0.78326    0.86906    1.000
    N4119    N        0.65142    0.90406    0.76514    1.000
    N4120    N        0.68362    0.98063    0.76688    1.000
    N4121    N        0.66031    0.97012    0.83359    1.000
    Si4122   Si       0.68255    0.93515    0.75493    1.000
    Si4123   Si       0.69085    0.98335    0.86217    1.000
    N4124    N        0.63694    0.90590    0.86245    1.000
    Si4125   Si       0.68313    0.01168    0.79858    1.000
    N4126    N        0.63880    0.81129    0.93644    1.000
    N4127    N        0.64921    0.86375    0.90637    1.000
    Si4128   Si       0.65852    0.84865    0.94546    1.000
    Si4129   Si       0.63768    0.78437    0.97073    1.000
    N4130    N        0.67646    0.98052    0.96837    1.000
    Si4131   Si       0.66966    0.93824    0.96858    1.000
    N4132    N        0.66598    0.00221    0.89384    1.000
    Si4133   Si       0.64039    0.97547    0.91563    1.000
    N4134    N        0.65802    0.93502    0.92647    1.000
    Si4135   Si       0.70699    0.09169    0.11023    1.000
    N4136    N        0.71650    0.05212    0.09327    1.000
    N4137    N        0.73340    0.12273    0.09516    1.000
    N4138    N        0.74689    0.10423    0.01911    1.000
    Si4139   Si       0.73344    0.01419    0.10468    1.000
    Si4140   Si       0.73146    0.06487    0.00098    1.000
    N4141    N        0.69761    0.05268    0.02493    1.000
    Si4142   Si       0.70906    0.22102    0.10563    1.000
    N4143    N        0.73781    0.19273    0.09067    1.000
    N4144    N        0.73049    0.21346    0.02922    1.000
    Si4145   Si       0.70851    0.24849    0.01158    1.000
    Si4146   Si       0.74586    0.15906    0.11717    1.000
    Si4147   Si       0.74555    0.08248    0.17201    1.000
    Si4148   Si       0.72012    0.11477    0.23218    1.000
    N4149    N        0.70687    0.08229    0.15255    1.000
    N4150    N        0.74401    0.04746    0.19703    1.000
    N4151    N        0.74874    0.11587    0.19975    1.000
    Si4152   Si       0.74922    0.04796    0.24028    1.000
    Si4153   Si       0.71957    0.01457    0.18386    1.000
    N4154    N        0.73538    0.23108    0.20296    1.000
    Si4155   Si       0.75207    0.25576    0.16634    1.000
    N4156    N        0.72854    0.17480    0.15383    1.000
    N4157    N        0.70458    0.15149    0.24626    1.000
    N4158    N        0.72845    0.25341    0.13005    1.000
    Si4159   Si       0.73700    0.09099    0.33838    1.000
    N4160    N        0.74139    0.08472    0.25851    1.000
    N4161    N        0.71197    0.02200    0.24814    1.000
    N4162    N        0.69631    0.07463    0.33007    1.000
    N4163    N        0.73837    0.23549    0.27641    1.000
    N4164    N        0.74079    0.23745    0.34166    1.000
    Si4165   Si       0.73871    0.20431    0.36874    1.000
    Si4166   Si       0.69685    0.22424    0.28397    1.000
    Si4167   Si       0.69686    0.05668    0.47473    1.000
    N4168    N        0.72439    0.11280    0.37687    1.000
    Si4169   Si       0.74741    0.11053    0.45065    1.000
    N4170    N        0.72347    0.04225    0.38274    1.000
    N4171    N        0.70722    0.08916    0.44766    1.000
    Si4172   Si       0.73072    0.05599    0.42332    1.000
    N4173    N        0.72077    0.02819    0.45568    1.000
    Si4174   Si       0.74691    0.22055    0.44513    1.000
    N4175    N        0.70399    0.22887    0.44288    1.000
    N4176    N        0.69670    0.19902    0.37185    1.000
    N4177    N        0.73008    0.03376    0.56523    1.000
    Si4178   Si       0.72368    0.10344    0.60394    1.000
    Si4179   Si       0.74161    0.06832    0.54197    1.000
    N4180    N        0.73047    0.10651    0.56106    1.000
    Si4181   Si       0.71055    0.12113    0.52304    1.000
    N4182    N        0.71293    0.07411    0.51157    1.000
    N4183    N        0.72251    0.20648    0.59357    1.000
    N4184    N        0.71943    0.16245    0.52721    1.000
    Si4185   Si       0.71303    0.20091    0.55086    1.000
    N4186    N        0.74555    0.22543    0.53278    1.000
    Si4187   Si       0.75266    0.23455    0.60538    1.000
    N4188    N        0.74729    0.01668    0.62210    1.000
    N4189    N        0.70452    0.04996    0.66540    1.000
    N4190    N        0.72967    0.12641    0.69584    1.000
    N4191    N        0.72711    0.01731    0.72513    1.000
    Si4192   Si       0.74564    0.04873    0.64993    1.000
    Si4193   Si       0.75128    0.12464    0.65680    1.000
    Si4194   Si       0.69354    0.03494    0.70491    1.000
    Si4195   Si       0.73039    0.21963    0.68293    1.000
    N4196    N        0.72509    0.14150    0.62691    1.000
    N4197    N        0.69833    0.19990    0.66195    1.000
    N4198    N        0.71227    0.24065    0.71537    1.000
    Si4199   Si       0.70398    0.17955    0.62394    1.000
    Si4200   Si       0.69727    0.21379    0.74657    1.000
    Si4201   Si       0.75275    0.15906    0.71402    1.000
    N4202    N        0.72302    0.17825    0.74176    1.000
    N4203    N        0.72680    0.09171    0.84188    1.000
    N4204    N        0.73529    0.11006    0.77219    1.000
    Si4205   Si       0.72891    0.05197    0.82667    1.000
    Si4206   Si       0.73527    0.12359    0.81507    1.000
    N4207    N        0.70996    0.04558    0.78708    1.000
    Si4208   Si       0.72578    0.06977    0.75469    1.000
    N4209    N        0.70410    0.01517    0.83694    1.000
    Si4210   Si       0.70699    0.14358    0.76187    1.000
    N4211    N        0.72472    0.19853    0.85328    1.000
    N4212    N        0.70517    0.22261    0.78811    1.000
    Si4213   Si       0.73962    0.24947    0.80254    1.000
    N4214    N        0.70073    0.15130    0.80425    1.000
    Si4215   Si       0.69863    0.19266    0.81918    1.000
    N4216    N        0.70507    0.06157    0.89793    1.000
    Si4217   Si       0.71156    0.10259    0.88273    1.000
    Si4218   Si       0.73507    0.04508    0.92276    1.000
    N4219    N        0.72319    0.04251    0.96451    1.000
    N4220    N        0.73979    0.12755    0.90375    1.000
    Si4221   Si       0.74154    0.25974    0.94186    1.000
    Si4222   Si       0.73791    0.16328    0.92946    1.000
    N4223    N        0.72829    0.14809    0.96883    1.000
    N4224    N        0.71356    0.23905    0.96839    1.000
    N4225    N        0.70269    0.19134    0.92178    1.000
    N4226    N        0.74687    0.24726    0.89830    1.000
    Si4227   Si       0.71281    0.22090    0.88925    1.000
    Si4228   Si       0.73710    0.35660    0.08276    1.000
    N4229    N        0.73278    0.31373    0.08049    1.000
    Si4230   Si       0.70919    0.28520    0.10530    1.000
    N4231    N        0.71090    0.37429    0.11190    1.000
    N4232    N        0.73519    0.28523    0.01754    1.000
    Si4233   Si       0.70104    0.37634    0.01474    1.000
    N4234    N        0.72819    0.38394    0.04788    1.000
    Si4235   Si       0.71712    0.46838    0.08764    1.000
    N4236    N        0.70822    0.45048    0.04863    1.000
    Si4237   Si       0.74448    0.42576    0.04889    1.000
    N4238    N        0.74478    0.50241    0.08961    1.000
    N4239    N        0.73915    0.29767    0.17778    1.000
    Si4240   Si       0.69658    0.30426    0.17602    1.000
    N4241    N        0.70386    0.44694    0.12323    1.000
    Si4242   Si       0.71643    0.40738    0.14023    1.000
    Si4243   Si       0.72003    0.40862    0.21911    1.000
    N4244    N        0.70349    0.39696    0.17991    1.000
    N4245    N        0.73350    0.46664    0.18395    1.000
    N4246    N        0.69615    0.51091    0.20625    1.000
    Si4247   Si       0.73827    0.50755    0.19238    1.000
    N4248    N        0.71423    0.30636    0.33052    1.000
    Si4249   Si       0.73529    0.34196    0.25621    1.000
    Si4250   Si       0.74605    0.33701    0.32997    1.000
    N4251    N        0.72779    0.37639    0.32893    1.000
    Si4252   Si       0.70983    0.26553    0.34587    1.000
    Si4253   Si       0.73486    0.38125    0.37194    1.000
    N4254    N        0.71926    0.38208    0.25398    1.000
    Si4255   Si       0.71911    0.40129    0.29366    1.000
    N4256    N        0.71890    0.48071    0.34435    1.000
    Si4257   Si       0.72258    0.47439    0.30186    1.000
    N4258    N        0.74803    0.43693    0.29999    1.000
    N4259    N        0.74039    0.50382    0.27757    1.000
    N4260    N        0.71390    0.34251    0.45648    1.000
    N4261    N        0.70509    0.27411    0.49598    1.000
    Si4262   Si       0.71079    0.38407    0.43802    1.000
    N4263    N        0.73151    0.47007    0.41853    1.000
    N4264    N        0.70041    0.38162    0.39542    1.000
    N4265    N        0.69758    0.41684    0.46285    1.000
    Si4266   Si       0.74135    0.49186    0.37967    1.000
    N4267    N        0.73875    0.27817    0.60102    1.000
    Si4268   Si       0.74133    0.30449    0.56727    1.000
    N4269    N        0.70976    0.32482    0.54323    1.000
    Si4270   Si       0.74437    0.25958    0.50695    1.000
    Si4271   Si       0.75113    0.42462    0.57453    1.000
    N4272    N        0.72643    0.38961    0.51876    1.000
    N4273    N        0.70989    0.43218    0.58746    1.000
    N4274    N        0.73814    0.48618    0.61959    1.000
    Si4275   Si       0.72044    0.42758    0.49822    1.000
    Si4276   Si       0.73805    0.28207    0.64677    1.000
    N4277    N        0.69904    0.29082    0.66909    1.000
    Si4278   Si       0.70495    0.43297    0.69180    1.000
    N4279    N        0.74211    0.44655    0.67442    1.000
    N4280    N        0.71169    0.39271    0.70850    1.000
    Si4281   Si       0.72403    0.44339    0.63108    1.000
    Si4282   Si       0.72029    0.31830    0.77119    1.000
    Si4283   Si       0.71844    0.34806    0.84721    1.000
    N4284    N        0.70285    0.33619    0.80888    1.000
    N4285    N        0.72168    0.26673    0.83844    1.000
    N4286    N        0.75046    0.28787    0.78253    1.000
    Si4287   Si       0.75044    0.28193    0.86996    1.000
    N4288    N        0.74061    0.35162    0.75322    1.000
    Si4289   Si       0.71578    0.38579    0.75243    1.000
    N4290    N        0.73858    0.47340    0.81804    1.000
    Si4291   Si       0.72905    0.50069    0.78682    1.000
    N4292    N        0.73972    0.41511    0.77327    1.000
    Si4293   Si       0.72911    0.48272    0.86055    1.000
    N4294    N        0.72750    0.31818    0.87905    1.000
    Si4295   Si       0.73309    0.31761    0.98807    1.000
    Si4296   Si       0.71163    0.32482    0.91805    1.000
    N4297    N        0.71964    0.36540    0.93099    1.000
    N4298    N        0.73478    0.30123    0.94815    1.000
    Si4299   Si       0.74089    0.38162    0.96425    1.000
    N4300    N        0.69464    0.33923    0.99164    1.000
    Si4301   Si       0.74197    0.44348    0.97916    1.000
    N4302    N        0.71109    0.40954    0.98289    1.000
    Si4303   Si       0.71561    0.39544    0.90098    1.000
    N4304    N        0.72955    0.48351    0.97334    1.000
    N4305    N        0.71055    0.60694    0.01687    1.000
    Si4306   Si       0.74369    0.54272    0.07903    1.000
    Si4307   Si       0.73843    0.57511    0.00908    1.000
    N4308    N        0.70095    0.55286    0.07965    1.000
    Si4309   Si       0.72083    0.62981    0.05292    1.000
    N4310    N        0.71948    0.67254    0.05433    1.000
    N4311    N        0.70876    0.72998    0.01804    1.000
    Si4312   Si       0.72476    0.69037    0.01571    1.000
    N4313    N        0.73453    0.53116    0.15763    1.000
    Si4314   Si       0.72990    0.61284    0.15725    1.000
    N4315    N        0.70078    0.58572    0.14113    1.000
    Si4316   Si       0.69433    0.54436    0.16077    1.000
    N4317    N        0.70927    0.64268    0.17953    1.000
    N4318    N        0.70864    0.69583    0.22820    1.000
    Si4319   Si       0.73341    0.66948    0.20466    1.000
    N4320    N        0.73668    0.74542    0.13530    1.000
    N4321    N        0.71590    0.56564    0.31601    1.000
    Si4322   Si       0.73413    0.60580    0.32546    1.000
    Si4323   Si       0.71963    0.54341    0.27518    1.000
    Si4324   Si       0.72815    0.61216    0.25685    1.000
    N4325    N        0.74408    0.57220    0.25665    1.000
    N4326    N        0.70430    0.63167    0.34491    1.000
    N4327    N        0.75190    0.62801    0.29272    1.000
    Si4328   Si       0.72581    0.70843    0.26890    1.000
    N4329    N        0.71852    0.75251    0.26890    1.000
    Si4330   Si       0.71077    0.67420    0.33418    1.000
    N4331    N        0.70094    0.68340    0.29300    1.000
    N4332    N        0.74825    0.68834    0.34762    1.000
    Si4333   Si       0.69956    0.54242    0.40128    1.000
    N4334    N        0.73975    0.53735    0.38707    1.000
    N4335    N        0.73538    0.63524    0.47709    1.000
    N4336    N        0.73416    0.52949    0.49344    1.000
    Si4337   Si       0.72787    0.63359    0.43428    1.000
    Si4338   Si       0.70570    0.70148    0.39752    1.000
    N4339    N        0.73570    0.67362    0.42015    1.000
    N4340    N        0.72714    0.73875    0.39439    1.000
    N4341    N        0.72717    0.75799    0.46976    1.000
    N4342    N        0.73261    0.61594    0.60262    1.000
    N4343    N        0.73469    0.58654    0.53525    1.000
    Si4344   Si       0.71842    0.54721    0.52980    1.000
    Si4345   Si       0.71292    0.60819    0.56470    1.000
    N4346    N        0.72412    0.52375    0.56649    1.000
    N4347    N        0.71237    0.64871    0.54593    1.000
    Si4348   Si       0.70808    0.68056    0.57394    1.000
    Si4349   Si       0.72512    0.66511    0.50730    1.000
    N4350    N        0.74598    0.68265    0.59333    1.000
    N4351    N        0.70062    0.71805    0.55230    1.000
    Si4352   Si       0.70382    0.75943    0.56506    1.000
    N4353    N        0.73656    0.75690    0.59595    1.000
    N4354    N        0.71203    0.55093    0.62886    1.000
    Si4355   Si       0.71251    0.59436    0.63443    1.000
    N4356    N        0.72932    0.55768    0.73715    1.000
    N4357    N        0.73254    0.51583    0.68538    1.000
    Si4358   Si       0.72514    0.59310    0.71213    1.000
    N4359    N        0.73785    0.59605    0.66972    1.000
    Si4360   Si       0.74233    0.52359    0.64334    1.000
    N4361    N        0.69992    0.73147    0.64803    1.000
    N4362    N        0.73304    0.70718    0.70621    1.000
    Si4363   Si       0.73675    0.73373    0.67281    1.000
    Si4364   Si       0.72220    0.56557    0.77912    1.000
    Si4365   Si       0.72230    0.61204    0.82677    1.000
    N4366    N        0.74292    0.60280    0.79103    1.000
    N4367    N        0.74222    0.53758    0.80362    1.000
    N4368    N        0.74722    0.62099    0.86163    1.000
    N4369    N        0.72252    0.52559    0.87406    1.000
    N4370    N        0.72874    0.69378    0.86175    1.000
    Si4371   Si       0.70520    0.67183    0.77841    1.000
    Si4372   Si       0.70392    0.75216    0.80558    1.000
    N4373    N        0.74563    0.66657    0.76214    1.000
    N4374    N        0.70078    0.70968    0.79720    1.000
    N4375    N        0.73857    0.75775    0.83071    1.000
    N4376    N        0.70123    0.64814    0.81544    1.000
    Si4377   Si       0.75826    0.72484    0.85103    1.000
    N4378    N        0.72057    0.54729    0.98037    1.000
    Si4379   Si       0.69181    0.56611    0.95306    1.000
    N4380    N        0.69885    0.57695    0.91076    1.000
    N4381    N        0.70775    0.64946    0.91460    1.000
    N4382    N        0.70072    0.66861    0.98462    1.000
    N4383    N        0.72279    0.71486    0.93744    1.000
    Si4384   Si       0.69890    0.75118    0.93680    1.000
    Si4385   Si       0.73777    0.65831    0.88308    1.000
    N4386    N        0.72924    0.84766    0.07300    1.000
    N4387    N        0.73306    0.77801    0.06867    1.000
    N4388    N        0.73186    0.79876    0.00648    1.000
    N4389    N        0.74585    0.86351    0.00879    1.000
    Si4390   Si       0.74767    0.82713    0.03704    1.000
    Si4391   Si       0.73597    0.76087    0.02849    1.000
    Si4392   Si       0.70882    0.95256    0.06373    1.000
    N4393    N        0.71385    0.99407    0.07080    1.000
    N4394    N        0.73931    0.93498    0.03858    1.000
    N4395    N        0.70486    0.93580    0.10583    1.000
    Si4396   Si       0.74889    0.91630    0.11591    1.000
    N4397    N        0.71138    0.80113    0.12665    1.000
    Si4398   Si       0.70217    0.87062    0.23926    1.000
    N4399    N        0.70991    0.82854    0.22826    1.000
    Si4400   Si       0.71701    0.77760    0.16308    1.000
    N4401    N        0.72812    0.87685    0.13397    1.000
    N4402    N        0.74679    0.78596    0.19342    1.000
    Si4403   Si       0.75076    0.82222    0.21396    1.000
    Si4404   Si       0.73870    0.98834    0.24355    1.000
    Si4405   Si       0.73266    0.88962    0.17488    1.000
    N4406    N        0.74286    0.98128    0.20147    1.000
    N4407    N        0.70017    0.89709    0.20296    1.000
    Si4408   Si       0.71012    0.95626    0.14615    1.000
    N4409    N        0.74438    0.92888    0.15936    1.000
    N4410    N        0.71877    0.99822    0.14156    1.000
    N4411    N        0.73000    0.81348    0.29870    1.000
    N4412    N        0.71180    0.84217    0.35351    1.000
    N4413    N        0.73034    0.87758    0.27166    1.000
    Si4414   Si       0.74967    0.77971    0.27761    1.000
    Si4415   Si       0.71937    0.91665    0.28828    1.000
    Si4416   Si       0.72646    0.96317    0.34170    1.000
    N4417    N        0.72200    0.95263    0.26375    1.000
    N4418    N        0.74243    0.92523    0.32199    1.000
    N4419    N        0.69735    0.98397    0.31727    1.000
    Si4420   Si       0.71870    0.77646    0.37126    1.000
    Si4421   Si       0.72596    0.85156    0.48249    1.000
    N4422    N        0.72463    0.79701    0.41153    1.000
    Si4423   Si       0.74335    0.75959    0.42857    1.000
    N4424    N        0.69600    0.81866    0.48258    1.000
    N4425    N        0.73156    0.95204    0.46753    1.000
    Si4426   Si       0.73416    0.99691    0.48104    1.000
    N4427    N        0.72774    0.90638    0.40596    1.000
    Si4428   Si       0.73844    0.91394    0.44931    1.000
    N4429    N        0.70873    0.88999    0.47264    1.000
    N4430    N        0.72695    0.78295    0.53423    1.000
    N4431    N        0.73214    0.85326    0.52728    1.000
    Si4432   Si       0.73615    0.86433    0.59965    1.000
    Si4433   Si       0.75092    0.81860    0.54428    1.000
    N4434    N        0.75275    0.82743    0.58678    1.000
    Si4435   Si       0.70205    0.88136    0.53987    1.000
    N4436    N        0.69715    0.87333    0.58074    1.000
    Si4437   Si       0.75222    0.79303    0.61235    1.000
    Si4438   Si       0.70367    0.77944    0.49757    1.000
    N4439    N        0.70029    0.98697    0.50970    1.000
    Si4440   Si       0.75016    0.93170    0.56196    1.000
    N4441    N        0.71577    0.92299    0.53592    1.000
    N4442    N        0.74179    0.96434    0.58727    1.000
    Si4443   Si       0.70417    0.94448    0.50146    1.000
    Si4444   Si       0.69646    0.86802    0.66516    1.000
    N4445    N        0.70997    0.84120    0.69541    1.000
    N4446    N        0.73990    0.77172    0.70041    1.000
    N4447    N        0.73349    0.87056    0.64108    1.000
    N4448    N        0.72149    0.79953    0.64342    1.000
    Si4449   Si       0.73686    0.81072    0.68061    1.000
    Si4450   Si       0.74289    0.76864    0.74380    1.000
    Si4451   Si       0.72153    0.97932    0.62136    1.000
    N4452    N        0.72653    0.96319    0.65972    1.000
    N4453    N        0.72214    0.94597    0.72875    1.000
    Si4454   Si       0.73013    0.93027    0.68926    1.000
    Si4455   Si       0.73695    0.83035    0.77699    1.000
    N4456    N        0.73659    0.82747    0.82148    1.000
    Si4457   Si       0.72065    0.84220    0.85901    1.000
    N4458    N        0.70430    0.77014    0.76545    1.000
    N4459    N        0.69961    0.88081    0.85445    1.000
    N4460    N        0.69724    0.84486    0.76330    1.000
    N4461    N        0.70840    0.91266    0.78357    1.000
    Si4462   Si       0.73180    0.91199    0.85810    1.000
    Si4463   Si       0.72483    0.98308    0.75084    1.000
    Si4464   Si       0.75111    0.90932    0.78209    1.000
    Si4465   Si       0.73202    0.81605    0.96468    1.000
    N4466    N        0.73009    0.78148    0.93912    1.000
    N4467    N        0.69744    0.84385    0.96549    1.000
    Si4468   Si       0.70505    0.87191    0.99735    1.000
    N4469    N        0.75060    0.81450    0.88220    1.000
    N4470    N        0.72032    0.95073    0.87433    1.000
    Si4471   Si       0.71568    0.99898    0.96150    1.000
    N4472    N        0.73494    0.00101    0.92002    1.000
    Si4473   Si       0.73950    0.93471    0.99376    1.000
    N4474    N        0.74287    0.97859    0.98579    1.000
    N4475    N        0.70190    0.91353    0.98354    1.000
    Si4476   Si       0.75378    0.97170    0.89395    1.000
    Si4477   Si       0.80058    0.06821    0.03396    1.000
    N4478    N        0.77774    0.02060    0.10424    1.000
    N4479    N        0.79137    0.08653    0.07203    1.000
    N4480    N        0.76736    0.04426    0.01372    1.000
    Si4481   Si       0.79965    0.05676    0.11514    1.000
    Si4482   Si       0.75973    0.11866    0.06011    1.000
    N4483    N        0.80470    0.20381    0.07721    1.000
    Si4484   Si       0.76314    0.20630    0.05889    1.000
    N4485    N        0.77358    0.15626    0.04168    1.000
    Si4486   Si       0.75821    0.14142    0.99994    1.000
    N4487    N        0.76924    0.25243    0.06765    1.000
    N4488    N        0.78869    0.15072    0.12089    1.000
    Si4489   Si       0.80575    0.11558    0.14002    1.000
    N4490    N        0.77631    0.08170    0.14361    1.000
    Si4491   Si       0.78908    0.13343    0.20931    1.000
    Si4492   Si       0.75675    0.19660    0.17897    1.000
    N4493    N        0.78060    0.17462    0.20632    1.000
    N4494    N        0.79661    0.22768    0.23772    1.000
    N4495    N        0.78392    0.22545    0.16080    1.000
    Si4496   Si       0.75674    0.24281    0.23942    1.000
    Si4497   Si       0.79650    0.18322    0.25054    1.000
    Si4498   Si       0.77537    0.10477    0.27656    1.000
    N4499    N        0.76549    0.05780    0.33429    1.000
    Si4500   Si       0.76097    0.02750    0.36458    1.000
    Si4501   Si       0.80700    0.06202    0.32216    1.000
    N4502    N        0.77322    0.01275    0.25525    1.000
    N4503    N        0.81183    0.08144    0.28387    1.000
    N4504    N        0.75689    0.12070    0.31244    1.000
    N4505    N        0.78854    0.19185    0.29561    1.000
    Si4506   Si       0.76835    0.23019    0.30920    1.000
    Si4507   Si       0.77863    0.15729    0.32209    1.000
    N4508    N        0.75721    0.16884    0.35724    1.000
    N4509    N        0.78793    0.13598    0.25164    1.000
    N4510    N        0.80867    0.22364    0.35474    1.000
    N4511    N        0.79577    0.11096    0.37802    1.000
    N4512    N        0.76723    0.07686    0.42969    1.000
    N4513    N        0.79658    0.03483    0.38650    1.000
    Si4514   Si       0.80047    0.07433    0.40152    1.000
    N4515    N        0.75799    0.12282    0.49102    1.000
    Si4516   Si       0.80203    0.10980    0.49450    1.000
    N4517    N        0.81638    0.06874    0.48639    1.000
    Si4518   Si       0.76021    0.13411    0.38324    1.000
    Si4519   Si       0.80143    0.22076    0.39696    1.000
    Si4520   Si       0.79237    0.16598    0.44377    1.000
    N4521    N        0.81206    0.25747    0.42040    1.000
    N4522    N        0.75995    0.14351    0.42495    1.000
    N4523    N        0.76289    0.18890    0.46891    1.000
    N4524    N        0.75894    0.21703    0.40521    1.000
    N4525    N        0.76206    0.25682    0.46580    1.000
    N4526    N        0.78477    0.06336    0.54305    1.000
    Si4527   Si       0.80143    0.03660    0.51303    1.000
    N4528    N        0.76967    0.01164    0.49972    1.000
    N4529    N        0.79073    0.17643    0.53322    1.000
    N4530    N        0.78967    0.22168    0.59004    1.000
    Si4531   Si       0.78659    0.21850    0.54740    1.000
    Si4532   Si       0.75810    0.16578    0.50580    1.000
    N4533    N        0.77572    0.04151    0.67981    1.000
    Si4534   Si       0.77055    0.02980    0.72077    1.000
    Si4535   Si       0.79923    0.09515    0.63239    1.000
    N4536    N        0.79501    0.12859    0.66150    1.000
    N4537    N        0.75481    0.08757    0.63274    1.000
    N4538    N        0.76888    0.06518    0.74669    1.000
    N4539    N        0.80379    0.24689    0.70086    1.000
    N4540    N        0.76403    0.19229    0.68940    1.000
    Si4541   Si       0.79035    0.21964    0.66677    1.000
    N4542    N        0.78545    0.14212    0.73948    1.000
    N4543    N        0.75369    0.24046    0.64914    1.000
    Si4544   Si       0.77756    0.10445    0.76032    1.000
    Si4545   Si       0.80255    0.11880    0.83298    1.000
    N4546    N        0.77029    0.03595    0.83174    1.000
    Si4547   Si       0.80163    0.05000    0.85975    1.000
    N4548    N        0.80643    0.10325    0.79311    1.000
    N4549    N        0.79365    0.09183    0.86532    1.000
    Si4550   Si       0.76461    0.18959    0.84051    1.000
    N4551    N        0.76917    0.14748    0.82807    1.000
    N4552    N        0.77172    0.22148    0.81110    1.000
    N4553    N        0.79365    0.20126    0.86988    1.000
    Si4554   Si       0.77797    0.10619    0.90438    1.000
    N4555    N        0.77214    0.06740    0.92262    1.000
    Si4556   Si       0.80672    0.04441    0.93620    1.000
    N4557    N        0.80532    0.01159    0.96558    1.000
    N4558    N        0.81334    0.13053    0.91784    1.000
    N4559    N        0.77539    0.18597    0.93133    1.000
    Si4560   Si       0.81095    0.16400    0.94545    1.000
    Si4561   Si       0.78683    0.22390    0.91195    1.000
    N4562    N        0.79905    0.14626    0.98420    1.000
    N4563    N        0.78466    0.25275    0.94896    1.000
    N4564    N        0.77586    0.36623    0.09841    1.000
    N4565    N        0.79802    0.31122    0.05677    1.000
    Si4566   Si       0.75786    0.28986    0.05500    1.000
    Si4567   Si       0.80910    0.34201    0.08291    1.000
    Si4568   Si       0.78298    0.48286    0.08679    1.000
    Si4569   Si       0.77973    0.40894    0.11144    1.000
    N4570    N        0.76769    0.43859    0.01486    1.000
    N4571    N        0.76423    0.44149    0.08477    1.000
    N4572    N        0.80576    0.50070    0.05321    1.000
    Si4573   Si       0.80716    0.43168    0.00013    1.000
    N4574    N        0.80410    0.28897    0.18478    1.000
    Si4575   Si       0.77275    0.31062    0.20486    1.000
    N4576    N        0.76258    0.34790    0.21923    1.000
    N4577    N        0.76873    0.28459    0.23901    1.000
    Si4578   Si       0.78745    0.38254    0.22501    1.000
    N4579    N        0.75880    0.41416    0.14710    1.000
    N4580    N        0.76298    0.41502    0.21429    1.000
    Si4581   Si       0.80763    0.50086    0.19238    1.000
    N4582    N        0.80113    0.46286    0.17388    1.000
    Si4583   Si       0.76601    0.43970    0.18000    1.000
    Si4584   Si       0.78896    0.29843    0.27639    1.000
    N4585    N        0.79529    0.26601    0.30491    1.000
    N4586    N        0.76161    0.33140    0.28938    1.000
    N4587    N        0.75778    0.34174    0.37148    1.000
    N4588    N        0.79420    0.39221    0.26653    1.000
    Si4589   Si       0.79011    0.43153    0.28391    1.000
    Si4590   Si       0.76953    0.44133    0.34218    1.000
    N4591    N        0.78031    0.48054    0.36151    1.000
    N4592    N        0.80567    0.46308    0.25590    1.000
    Si4593   Si       0.77972    0.50006    0.25965    1.000
    N4594    N        0.80958    0.43733    0.32226    1.000
    N4595    N        0.76286    0.41319    0.37548    1.000
    Si4596   Si       0.79179    0.33178    0.39508    1.000
    Si4597   Si       0.79356    0.28182    0.45052    1.000
    N4598    N        0.77937    0.31804    0.43421    1.000
    Si4599   Si       0.75680    0.34679    0.45975    1.000
    N4600    N        0.81121    0.37107    0.40446    1.000
    N4601    N        0.79533    0.44301    0.42993    1.000
    N4602    N        0.75455    0.38542    0.43974    1.000
    N4603    N        0.75782    0.45042    0.48961    1.000
    Si4604   Si       0.78344    0.40491    0.41413    1.000
    N4605    N        0.78037    0.50708    0.44824    1.000
    Si4606   Si       0.76447    0.46729    0.44721    1.000
    Si4607   Si       0.79885    0.31096    0.51831    1.000
    N4608    N        0.76639    0.28498    0.53298    1.000
    Si4609   Si       0.80714    0.33918    0.58621    1.000
    N4610    N        0.76547    0.34113    0.57016    1.000
    Si4611   Si       0.76027    0.36643    0.53347    1.000
    N4612    N        0.80801    0.36404    0.62169    1.000
    N4613    N        0.81680    0.30076    0.60558    1.000
    N4614    N        0.77307    0.34163    0.49990    1.000
    N4615    N        0.78184    0.39918    0.55362    1.000
    Si4616   Si       0.78494    0.46720    0.51940    1.000
    N4617    N        0.76090    0.41745    0.61655    1.000
    N4618    N        0.76307    0.46173    0.55836    1.000
    Si4619   Si       0.75521    0.49660    0.58130    1.000
    N4620    N        0.76749    0.30382    0.66733    1.000
    Si4621   Si       0.79575    0.33838    0.65649    1.000
    N4622    N        0.79164    0.30944    0.73169    1.000
    Si4623   Si       0.77462    0.34825    0.72946    1.000
    N4624    N        0.78542    0.36601    0.68977    1.000
    Si4625   Si       0.79767    0.28892    0.69395    1.000
    N4626    N        0.80098    0.37825    0.74979    1.000
    N4627    N        0.79544    0.48831    0.69450    1.000
    Si4628   Si       0.78338    0.45061    0.68251    1.000
    Si4629   Si       0.80102    0.40467    0.62709    1.000
    N4630    N        0.78741    0.43427    0.72320    1.000
    Si4631   Si       0.79576    0.47448    0.74100    1.000
    Si4632   Si       0.80986    0.39813    0.70629    1.000
    N4633    N        0.81111    0.42252    0.66704    1.000
    Si4634   Si       0.79079    0.29723    0.77412    1.000
    Si4635   Si       0.79578    0.33391    0.83901    1.000
    N4636    N        0.79158    0.29615    0.86145    1.000
    N4637    N        0.75839    0.36029    0.83848    1.000
    N4638    N        0.81154    0.32835    0.79875    1.000
    Si4639   Si       0.78120    0.39149    0.85632    1.000
    N4640    N        0.79078    0.43301    0.84699    1.000
    Si4641   Si       0.78247    0.46373    0.81622    1.000
    Si4642   Si       0.78093    0.41523    0.76300    1.000
    N4643    N        0.80316    0.44915    0.78140    1.000
    N4644    N        0.80340    0.50157    0.82557    1.000
    N4645    N        0.75913    0.49676    0.75310    1.000
    N4646    N        0.75858    0.35247    0.98864    1.000
    Si4647   Si       0.80249    0.35191    0.98268    1.000
    N4648    N        0.80948    0.36257    0.94040    1.000
    Si4649   Si       0.79302    0.39901    0.92553    1.000
    Si4650   Si       0.79735    0.45503    0.88533    1.000
    N4651    N        0.76694    0.41644    0.95665    1.000
    N4652    N        0.76328    0.48082    0.88808    1.000
    N4653    N        0.76008    0.39876    0.89392    1.000
    Si4654   Si       0.77634    0.60808    0.09425    1.000
    Si4655   Si       0.79728    0.53639    0.03093    1.000
    N4656    N        0.76871    0.56715    0.10683    1.000
    N4657    N        0.76375    0.62492    0.05501    1.000
    N4658    N        0.75730    0.55210    0.03939    1.000
    Si4659   Si       0.81176    0.59628    0.00309    1.000
    N4660    N        0.79039    0.75486    0.09170    1.000
    Si4661   Si       0.79109    0.65846    0.03851    1.000
    N4662    N        0.76721    0.68202    0.00918    1.000
    N4663    N        0.77739    0.74788    0.01991    1.000
    Si4664   Si       0.81313    0.71652    0.09029    1.000
    N4665    N        0.81765    0.67909    0.06662    1.000
    Si4666   Si       0.79077    0.71632    0.99257    1.000
    Si4667   Si       0.78403    0.61513    0.20433    1.000
    Si4668   Si       0.77012    0.55753    0.15331    1.000
    N4669    N        0.80646    0.53587    0.16296    1.000
    N4670    N        0.75991    0.59173    0.17852    1.000
    N4671    N        0.80798    0.59372    0.23265    1.000
    N4672    N        0.77405    0.50996    0.21769    1.000
    N4673    N        0.75633    0.63331    0.12687    1.000
    N4674    N        0.79602    0.74818    0.23474    1.000
    Si4675   Si       0.77988    0.66315    0.14822    1.000
    N4676    N        0.79241    0.69626    0.12381    1.000
    N4677    N        0.75456    0.63840    0.23016    1.000
    N4678    N        0.75541    0.68919    0.17447    1.000
    Si4679   Si       0.77085    0.72304    0.14894    1.000
    N4680    N        0.80191    0.74893    0.16578    1.000
    N4681    N        0.80268    0.64237    0.17908    1.000
    N4682    N        0.76800    0.59827    0.35254    1.000
    N4683    N        0.80149    0.53165    0.27768    1.000
    Si4684   Si       0.80438    0.61487    0.33578    1.000
    Si4685   Si       0.78896    0.57153    0.26534    1.000
    N4686    N        0.81177    0.58969    0.29982    1.000
    N4687    N        0.76745    0.69778    0.27043    1.000
    Si4688   Si       0.79787    0.72855    0.27288    1.000
    Si4689   Si       0.78991    0.69090    0.35516    1.000
    Si4690   Si       0.77409    0.65340    0.26669    1.000
    N4691    N        0.81047    0.72966    0.35556    1.000
    N4692    N        0.81090    0.65881    0.33040    1.000
    Si4693   Si       0.76801    0.57509    0.38837    1.000
    N4694    N        0.77591    0.57436    0.47812    1.000
    Si4695   Si       0.77470    0.53161    0.48299    1.000
    Si4696   Si       0.79299    0.59475    0.44154    1.000
    N4697    N        0.80387    0.56366    0.41269    1.000
    N4698    N        0.75739    0.60737    0.41811    1.000
    Si4699   Si       0.80661    0.75615    0.45168    1.000
    N4700    N        0.77254    0.72538    0.44199    1.000
    Si4701   Si       0.75699    0.72983    0.48472    1.000
    N4702    N        0.80019    0.66705    0.46426    1.000
    N4703    N        0.80068    0.67374    0.39427    1.000
    Si4704   Si       0.77617    0.68230    0.43019    1.000
    N4705    N        0.79226    0.75381    0.49463    1.000
    Si4706   Si       0.75765    0.60764    0.50450    1.000
    N4707    N        0.79394    0.51662    0.58315    1.000
    N4708    N        0.79912    0.62467    0.59799    1.000
    N4709    N        0.79184    0.51171    0.51694    1.000
    N4710    N        0.78703    0.63137    0.52433    1.000
    N4711    N        0.81055    0.57195    0.54878    1.000
    Si4712   Si       0.81028    0.61311    0.55686    1.000
    Si4713   Si       0.79449    0.67030    0.50633    1.000
    N4714    N        0.79888    0.73244    0.58476    1.000
    Si4715   Si       0.76303    0.64688    0.60992    1.000
    Si4716   Si       0.76100    0.72172    0.60459    1.000
    N4717    N        0.75766    0.69360    0.50864    1.000
    Si4718   Si       0.80259    0.56072    0.67558    1.000
    Si4719   Si       0.77083    0.62360    0.68186    1.000
    N4720    N        0.79310    0.54885    0.71699    1.000
    N4721    N        0.78333    0.54007    0.64231    1.000
    N4722    N        0.80635    0.60376    0.66776    1.000
    N4723    N        0.76183    0.61707    0.72352    1.000
    Si4724   Si       0.75619    0.52612    0.71985    1.000
    N4725    N        0.76931    0.72144    0.64755    1.000
    Si4726   Si       0.79552    0.68989    0.66188    1.000
    N4727    N        0.76964    0.65346    0.65205    1.000
    N4728    N        0.79660    0.68859    0.70545    1.000
    Si4729   Si       0.76520    0.69646    0.73559    1.000
    Si4730   Si       0.78271    0.54010    0.82185    1.000
    N4731    N        0.78048    0.55539    0.86340    1.000
    Si4732   Si       0.76767    0.62777    0.76589    1.000
    N4733    N        0.80612    0.55855    0.79177    1.000
    N4734    N        0.80692    0.62431    0.78296    1.000
    Si4735   Si       0.78198    0.59991    0.87257    1.000
    N4736    N        0.81244    0.69203    0.76801    1.000
    N4737    N        0.79322    0.70953    0.82829    1.000
    Si4738   Si       0.79399    0.72594    0.78789    1.000
    N4739    N        0.76502    0.73340    0.75780    1.000
    Si4740   Si       0.76298    0.52794    0.89165    1.000
    N4741    N        0.78598    0.61056    0.91450    1.000
    Si4742   Si       0.78613    0.57818    0.94708    1.000
    N4743    N        0.76775    0.54044    0.93223    1.000
    N4744    N        0.77040    0.59345    0.98570    1.000
    N4745    N        0.79409    0.52142    0.99036    1.000
    Si4746   Si       0.75548    0.51966    0.96846    1.000
    N4747    N        0.78935    0.72491    0.95068    1.000
    N4748    N        0.76539    0.74304    0.88946    1.000
    N4749    N        0.77248    0.67337    0.90365    1.000
    Si4750   Si       0.80678    0.64916    0.90806    1.000
    Si4751   Si       0.76165    0.71358    0.92088    1.000
    N4752    N        0.78831    0.81246    0.04178    1.000
    Si4753   Si       0.80023    0.77130    0.05113    1.000
    Si4754   Si       0.75346    0.85130    0.10796    1.000
    Si4755   Si       0.75730    0.77854    0.10926    1.000
    N4756    N        0.78117    0.88677    0.10080    1.000
    Si4757   Si       0.77799    0.94741    0.05433    1.000
    N4758    N        0.79027    0.98521    0.03686    1.000
    Si4759   Si       0.79509    0.98175    0.11528    1.000
    N4760    N        0.77005    0.95034    0.09688    1.000
    Si4761   Si       0.77740    0.00414    0.99983    1.000
    N4762    N        0.77479    0.81767    0.12538    1.000
    N4763    N        0.75856    0.86350    0.19800    1.000
    Si4764   Si       0.78741    0.76948    0.19878    1.000
    N4765    N        0.80367    0.80865    0.19739    1.000
    Si4766   Si       0.80771    0.82510    0.15447    1.000
    Si4767   Si       0.79869    0.88287    0.20392    1.000
    N4768    N        0.79532    0.92584    0.20921    1.000
    Si4769   Si       0.77279    0.95343    0.18307    1.000
    N4770    N        0.79908    0.97701    0.15871    1.000
    N4771    N        0.77930    0.85405    0.32143    1.000
    Si4772   Si       0.79335    0.76878    0.34021    1.000
    N4773    N        0.76961    0.81271    0.25430    1.000
    Si4774   Si       0.75629    0.84484    0.28212    1.000
    N4775    N        0.75588    0.78845    0.35504    1.000
    N4776    N        0.78149    0.75847    0.29970    1.000
    Si4777   Si       0.75263    0.83129    0.35068    1.000
    N4778    N        0.78679    0.91346    0.36727    1.000
    Si4779   Si       0.77872    0.89931    0.32842    1.000
    Si4780   Si       0.79234    0.95675    0.36744    1.000
    N4781    N        0.75856    0.98402    0.36059    1.000
    N4782    N        0.78211    0.78302    0.42658    1.000
    N4783    N        0.76977    0.84785    0.38845    1.000
    Si4784   Si       0.76040    0.81927    0.42006    1.000
    Si4785   Si       0.79545    0.87211    0.46165    1.000
    N4786    N        0.75979    0.84585    0.45649    1.000
    Si4787   Si       0.81410    0.93693    0.43324    1.000
    N4788    N        0.78223    0.90600    0.43766    1.000
    N4789    N        0.80777    0.96821    0.40577    1.000
    Si4790   Si       0.76738    0.88939    0.39737    1.000
    N4791    N        0.81738    0.95154    0.47480    1.000
    N4792    N        0.78942    0.81354    0.52639    1.000
    Si4793   Si       0.81251    0.85102    0.53049    1.000
    N4794    N        0.80301    0.88523    0.50218    1.000
    Si4795   Si       0.81354    0.92727    0.51136    1.000
    N4796    N        0.76271    0.89821    0.58620    1.000
    N4797    N        0.78552    0.94421    0.54045    1.000
    Si4798   Si       0.80392    0.89702    0.59678    1.000
    N4799    N        0.80115    0.00114    0.57602    1.000
    Si4800   Si       0.75943    0.00585    0.58033    1.000
    Si4801   Si       0.80720    0.80288    0.67255    1.000
    N4802    N        0.78999    0.78523    0.63350    1.000
    Si4803   Si       0.77237    0.87211    0.66510    1.000
    N4804    N        0.77696    0.83173    0.68222    1.000
    N4805    N        0.80538    0.87619    0.63647    1.000
    Si4806   Si       0.79537    0.90851    0.72301    1.000
    N4807    N        0.76312    0.90251    0.69522    1.000
    N4808    N        0.79357    0.99417    0.72753    1.000
    N4809    N        0.79906    0.78383    0.84078    1.000
    N4810    N        0.76642    0.80131    0.76117    1.000
    Si4811   Si       0.80228    0.85537    0.77524    1.000
    N4812    N        0.76095    0.86634    0.76952    1.000
    Si4813   Si       0.80852    0.78914    0.74968    1.000
    Si4814   Si       0.75731    0.79381    0.84123    1.000
    N4815    N        0.80907    0.85941    0.81804    1.000
    Si4816   Si       0.78983    0.88783    0.84492    1.000
    Si4817   Si       0.77763    0.99532    0.82050    1.000
    N4818    N        0.78221    0.92967    0.75951    1.000
    N4819    N        0.77987    0.97548    0.85827    1.000
    Si4820   Si       0.78923    0.97166    0.76464    1.000
    N4821    N        0.76101    0.91429    0.82422    1.000
    N4822    N        0.75286    0.98707    0.78353    1.000
    Si4823   Si       0.76378    0.78135    0.90918    1.000
    Si4824   Si       0.77216    0.84957    0.90257    1.000
    Si4825   Si       0.77199    0.87084    0.97616    1.000
    N4826    N        0.80391    0.78452    0.92435    1.000
    N4827    N        0.76270    0.84404    0.94473    1.000
    N4828    N        0.75738    0.87924    0.87456    1.000
    Si4829   Si       0.80984    0.95053    0.87765    1.000
    N4830    N        0.78485    0.94546    0.91321    1.000
    Si4831   Si       0.80438    0.92874    0.94840    1.000
    N4832    N        0.77121    0.91478    0.97235    1.000
    N4833    N        0.83226    0.04256    0.04913    1.000
    Si4834   Si       0.83796    0.10117    0.07366    1.000
    N4835    N        0.83102    0.08901    0.11652    1.000
    N4836    N        0.82739    0.10126    0.02169    1.000
    N4837    N        0.83993    0.14535    0.07054    1.000
    N4838    N        0.85714    0.16765    0.01572    1.000
    Si4839   Si       0.82176    0.17127    0.10049    1.000
    Si4840   Si       0.81860    0.14688    0.02569    1.000
    Si4841   Si       0.81151    0.24694    0.07790    1.000
    N4842    N        0.82560    0.25739    0.11856    1.000
    Si4843   Si       0.86177    0.06108    0.13624    1.000
    Si4844   Si       0.86323    0.11947    0.18845    1.000
    N4845    N        0.86495    0.09755    0.22577    1.000
    N4846    N        0.82649    0.03490    0.14493    1.000
    N4847    N        0.82031    0.12424    0.18026    1.000
    Si4848   Si       0.86931    0.00790    0.22680    1.000
    N4849    N        0.87554    0.02548    0.18703    1.000
    N4850    N        0.83937    0.03329    0.24650    1.000
    N4851    N        0.84675    0.23939    0.18284    1.000
    Si4852   Si       0.82703    0.22351    0.14891    1.000
    N4853    N        0.84908    0.18955    0.13019    1.000
    N4854    N        0.84000    0.07840    0.34342    1.000
    Si4855   Si       0.83714    0.12125    0.35858    1.000
    Si4856   Si       0.84461    0.07355    0.25754    1.000
    N4857    N        0.82161    0.02212    0.30984    1.000
    N4858    N        0.83948    0.18109    0.25210    1.000
    N4859    N        0.85086    0.22486    0.30547    1.000
    Si4860   Si       0.85356    0.22324    0.26253    1.000
    Si4861   Si       0.82328    0.19699    0.32316    1.000
    N4862    N        0.82090    0.15646    0.33623    1.000
    N4863    N        0.86152    0.25545    0.36801    1.000
    Si4864   Si       0.84773    0.05389    0.45975    1.000
    N4865    N        0.84192    0.07218    0.41861    1.000
    N4866    N        0.83662    0.01531    0.44565    1.000
    N4867    N        0.85916    0.13194    0.39732    1.000
    Si4868   Si       0.85966    0.17175    0.40995    1.000
    N4869    N        0.81860    0.14048    0.46732    1.000
    N4870    N        0.81840    0.18621    0.41499    1.000
    Si4871   Si       0.86208    0.14214    0.47932    1.000
    N4872    N        0.84968    0.05566    0.56183    1.000
    Si4873   Si       0.83226    0.02783    0.59192    1.000
    N4874    N        0.81637    0.11337    0.59539    1.000
    Si4875   Si       0.81840    0.08772    0.56022    1.000
    N4876    N        0.82268    0.11880    0.53078    1.000
    N4877    N        0.83890    0.01071    0.51334    1.000
    Si4878   Si       0.87616    0.03646    0.52452    1.000
    Si4879   Si       0.85435    0.13710    0.59898    1.000
    Si4880   Si       0.82992    0.21030    0.60505    1.000
    N4881    N        0.84856    0.17796    0.57833    1.000
    Si4882   Si       0.82898    0.16035    0.54085    1.000
    N4883    N        0.86640    0.16473    0.51814    1.000
    N4884    N        0.82429    0.23257    0.53309    1.000
    Si4885   Si       0.86174    0.25179    0.53215    1.000
    N4886    N        0.85724    0.24380    0.61632    1.000
    N4887    N        0.81943    0.05555    0.62802    1.000
    N4888    N        0.84610    0.04600    0.69522    1.000
    Si4889   Si       0.81569    0.03423    0.66537    1.000
    Si4890   Si       0.86673    0.02512    0.72847    1.000
    Si4891   Si       0.82645    0.23666    0.73553    1.000
    N4892    N        0.81645    0.19587    0.64352    1.000
    Si4893   Si       0.82476    0.16073    0.74327    1.000
    N4894    N        0.86161    0.14688    0.63988    1.000
    N4895    N        0.83983    0.17592    0.70401    1.000
    Si4896   Si       0.82835    0.15939    0.66642    1.000
    N4897    N        0.87002    0.23791    0.73152    1.000
    Si4898   Si       0.85110    0.10781    0.79486    1.000
    N4899    N        0.83574    0.05212    0.83359    1.000
    N4900    N        0.85776    0.01722    0.77129    1.000
    Si4901   Si       0.86654    0.03923    0.80803    1.000
    N4902    N        0.84485    0.12935    0.83517    1.000
    N4903    N        0.85513    0.13507    0.76105    1.000
    N4904    N        0.84277    0.22930    0.82875    1.000
    Si4905   Si       0.83446    0.21130    0.86680    1.000
    N4906    N        0.81962    0.20060    0.76187    1.000
    Si4907   Si       0.81259    0.22545    0.79830    1.000
    N4908    N        0.86750    0.12481    0.96251    1.000
    Si4909   Si       0.85129    0.09106    0.98623    1.000
    Si4910   Si       0.84960    0.10825    0.92571    1.000
    N4911    N        0.83540    0.07445    0.94745    1.000
    N4912    N        0.81837    0.02819    0.89728    1.000
    Si4913   Si       0.85812    0.00800    0.90372    1.000
    N4914    N        0.84714    0.18797    0.94830    1.000
    N4915    N        0.82873    0.23880    0.90120    1.000
    Si4916   Si       0.85217    0.22863    0.93728    1.000
    N4917    N        0.86631    0.18376    0.87598    1.000
    N4918    N        0.84695    0.25624    0.96963    1.000
    Si4919   Si       0.82982    0.29695    0.03078    1.000
    N4920    N        0.83979    0.37031    0.07035    1.000
    N4921    N        0.82792    0.32600    0.11938    1.000
    N4922    N        0.87093    0.31211    0.03031    1.000
    N4923    N        0.84115    0.25794    0.04998    1.000
    N4924    N        0.81718    0.38770    0.00278    1.000
    N4925    N        0.85633    0.50353    0.00727    1.000
    Si4926   Si       0.85417    0.39458    0.10470    1.000
    N4927    N        0.83422    0.43998    0.03540    1.000
    Si4928   Si       0.84459    0.48053    0.04367    1.000
    Si4929   Si       0.84465    0.39561    0.03527    1.000
    N4930    N        0.81481    0.49018    0.11608    1.000
    N4931    N        0.82065    0.41841    0.11935    1.000
    N4932    N        0.86731    0.30155    0.15812    1.000
    Si4933   Si       0.82418    0.29137    0.14567    1.000
    N4934    N        0.82706    0.37876    0.20941    1.000
    Si4935   Si       0.82111    0.25737    0.21404    1.000
    N4936    N        0.87260    0.43389    0.21670    1.000
    Si4937   Si       0.86620    0.39209    0.22431    1.000
    Si4938   Si       0.84788    0.46427    0.24113    1.000
    N4939    N        0.86969    0.45734    0.14523    1.000
    N4940    N        0.84672    0.49551    0.21052    1.000
    Si4941   Si       0.82697    0.45640    0.14072    1.000
    Si4942   Si       0.84295    0.32859    0.34534    1.000
    Si4943   Si       0.85823    0.29988    0.27015    1.000
    N4944    N        0.85471    0.29653    0.31523    1.000
    N4945    N        0.82279    0.32403    0.26029    1.000
    Si4946   Si       0.82786    0.36465    0.27669    1.000
    N4947    N        0.82868    0.35880    0.31936    1.000
    Si4948   Si       0.83501    0.25866    0.33148    1.000
    N4949    N        0.84883    0.26365    0.24848    1.000
    N4950    N        0.82019    0.30659    0.37383    1.000
    N4951    N        0.86408    0.38825    0.26744    1.000
    N4952    N        0.84950    0.49113    0.33618    1.000
    Si4953   Si       0.84991    0.45148    0.31636    1.000
    Si4954   Si       0.81759    0.50240    0.36316    1.000
    N4955    N        0.86867    0.35119    0.37415    1.000
    Si4956   Si       0.84289    0.27982    0.39836    1.000
    Si4957   Si       0.86052    0.29187    0.47281    1.000
    N4958    N        0.86863    0.29403    0.43068    1.000
    N4959    N        0.81825    0.29300    0.48337    1.000
    Si4960   Si       0.85243    0.38069    0.40338    1.000
    N4961    N        0.87496    0.32422    0.49730    1.000
    Si4962   Si       0.83470    0.45737    0.42092    1.000
    N4963    N        0.83377    0.49815    0.40358    1.000
    N4964    N        0.85672    0.46169    0.45699    1.000
    N4965    N        0.85811    0.42538    0.39720    1.000
    Si4966   Si       0.85709    0.28734    0.60050    1.000
    Si4967   Si       0.86770    0.32561    0.53982    1.000
    N4968    N        0.82615    0.33533    0.54540    1.000
    N4969    N        0.86686    0.28626    0.55674    1.000
    N4970    N        0.86061    0.40252    0.54378    1.000
    N4971    N        0.82362    0.45061    0.52871    1.000
    N4972    N        0.82471    0.42621    0.59729    1.000
    Si4973   Si       0.82058    0.41422    0.55672    1.000
    Si4974   Si       0.85516    0.45243    0.61364    1.000
    Si4975   Si       0.86828    0.44779    0.53881    1.000
    N4976    N        0.82808    0.31467    0.67727    1.000
    Si4977   Si       0.86820    0.31908    0.66364    1.000
    Si4978   Si       0.86997    0.48238    0.73870    1.000
    N4979    N        0.85267    0.39856    0.70735    1.000
    Si4980   Si       0.83537    0.49917    0.67874    1.000
    Si4981   Si       0.85410    0.43293    0.67943    1.000
    N4982    N        0.83426    0.48403    0.63513    1.000
    N4983    N        0.86012    0.46981    0.69924    1.000
    Si4984   Si       0.83136    0.36083    0.77859    1.000
    N4985    N        0.86514    0.28561    0.86292    1.000
    Si4986   Si       0.85553    0.38007    0.83936    1.000
    N4987    N        0.81773    0.36836    0.85691    1.000
    N4988    N        0.86805    0.34703    0.76091    1.000
    N4989    N        0.81323    0.26056    0.77204    1.000
    N4990    N        0.84551    0.39725    0.80049    1.000
    Si4991   Si       0.84406    0.44120    0.79378    1.000
    Si4992   Si       0.84309    0.49703    0.84370    1.000
    N4993    N        0.85886    0.46025    0.82956    1.000
    N4994    N        0.83255    0.50241    0.75063    1.000
    N4995    N        0.83156    0.30086    0.92140    1.000
    Si4996   Si       0.84818    0.33863    0.92949    1.000
    Si4997   Si       0.82637    0.28026    0.88423    1.000
    Si4998   Si       0.81543    0.28175    0.95851    1.000
    N4999    N        0.86981    0.34339    0.96927    1.000
    N5000    N        0.81329    0.31089    0.99199    1.000
    N5001    N        0.82513    0.45730    0.96962    1.000
    N5002    N        0.82620    0.48904    0.88435    1.000
    Si5003   Si       0.86197    0.50333    0.90478    1.000
    Si5004   Si       0.82778    0.50083    0.97578    1.000
    N5005    N        0.82096    0.42646    0.90805    1.000
    Si5006   Si       0.85151    0.44113    0.93607    1.000
    Si5007   Si       0.84231    0.58638    0.07118    1.000
    N5008    N        0.85101    0.55906    0.10505    1.000
    N5009    N        0.82119    0.57187    0.03703    1.000
    N5010    N        0.81748    0.61674    0.08867    1.000
    N5011    N        0.82110    0.63663    0.01370    1.000
    Si5012   Si       0.84815    0.65014    0.08567    1.000
    Si5013   Si       0.85323    0.73825    0.01222    1.000
    N5014    N        0.83692    0.74809    0.05050    1.000
    N5015    N        0.84869    0.73460    0.11437    1.000
    N5016    N        0.83292    0.70265    0.99769    1.000
    Si5017   Si       0.83409    0.52465    0.13000    1.000
    Si5018   Si       0.84203    0.61971    0.24246    1.000
    N5019    N        0.86931    0.75680    0.18716    1.000
    Si5020   Si       0.84490    0.65361    0.17308    1.000
    N5021    N        0.85438    0.65458    0.12755    1.000
    Si5022   Si       0.86882    0.69764    0.12648    1.000
    N5023    N        0.85326    0.69626    0.17044    1.000
    N5024    N        0.86243    0.63637    0.20735    1.000
    Si5025   Si       0.82625    0.55043    0.30975    1.000
    N5026    N        0.86524    0.53940    0.29204    1.000
    N5027    N        0.81396    0.54304    0.35152    1.000
    N5028    N        0.83331    0.61102    0.36914    1.000
    Si5029   Si       0.83617    0.67230    0.29527    1.000
    N5030    N        0.83814    0.71729    0.28748    1.000
    N5031    N        0.81936    0.65003    0.26185    1.000
    N5032    N        0.86388    0.68961    0.36493    1.000
    Si5033   Si       0.83985    0.56990    0.38209    1.000
    N5034    N        0.83820    0.53424    0.46741    1.000
    N5035    N        0.83277    0.60905    0.45433    1.000
    Si5036   Si       0.81564    0.52552    0.43132    1.000
    Si5037   Si       0.87098    0.58685    0.45517    1.000
    N5038    N        0.87159    0.57012    0.41617    1.000
    N5039    N        0.84143    0.73221    0.43166    1.000
    Si5040   Si       0.84063    0.65145    0.45384    1.000
    Si5041   Si       0.84359    0.72489    0.38606    1.000
    N5042    N        0.86321    0.65758    0.41773    1.000
    Si5043   Si       0.86952    0.75498    0.45933    1.000
    Si5044   Si       0.83768    0.65372    0.37960    1.000
    N5045    N        0.86637    0.65515    0.48802    1.000
    N5046    N        0.87215    0.75623    0.37596    1.000
    N5047    N        0.85128    0.54249    0.60696    1.000
    N5048    N        0.85729    0.52305    0.53991    1.000
    Si5049   Si       0.81555    0.53022    0.54922    1.000
    Si5050   Si       0.86714    0.53258    0.49862    1.000
    Si5051   Si       0.81570    0.51994    0.61977    1.000
    N5052    N        0.85122    0.63177    0.55589    1.000
    N5053    N        0.85716    0.70474    0.59030    1.000
    Si5054   Si       0.85905    0.66456    0.53010    1.000
    Si5055   Si       0.83157    0.72192    0.55944    1.000
    N5056    N        0.82557    0.69282    0.52904    1.000
    N5057    N        0.86063    0.60657    0.62592    1.000
    Si5058   Si       0.86370    0.56608    0.64267    1.000
    N5059    N        0.84152    0.54124    0.66944    1.000
    Si5060   Si       0.82453    0.62802    0.63506    1.000
    Si5061   Si       0.83376    0.68746    0.72866    1.000
    Si5062   Si       0.85810    0.70085    0.63426    1.000
    N5063    N        0.85394    0.65227    0.74411    1.000
    N5064    N        0.86131    0.71777    0.71531    1.000
    Si5065   Si       0.84787    0.74961    0.68823    1.000
    N5066    N        0.83156    0.66920    0.64667    1.000
    N5067    N        0.83350    0.73233    0.64905    1.000
    Si5068   Si       0.83239    0.59028    0.79158    1.000
    N5069    N        0.84980    0.56989    0.75411    1.000
    N5070    N        0.81942    0.61650    0.85828    1.000
    N5071    N        0.86932    0.60259    0.81319    1.000
    Si5072   Si       0.85794    0.63419    0.84746    1.000
    Si5073   Si       0.81683    0.54058    0.75260    1.000
    N5074    N        0.85334    0.66834    0.82156    1.000
    Si5075   Si       0.83554    0.65745    0.78343    1.000
    Si5076   Si       0.83309    0.69839    0.84407    1.000
    N5077    N        0.85276    0.73847    0.84481    1.000
    Si5078   Si       0.85786    0.56093    0.94710    1.000
    N5079    N        0.82766    0.58256    0.96469    1.000
    N5080    N        0.84526    0.51951    0.94144    1.000
    N5081    N        0.83300    0.65981    0.94457    1.000
    N5082    N        0.83630    0.67557    0.88185    1.000
    Si5083   Si       0.84381    0.66004    0.98616    1.000
    N5084    N        0.85485    0.72979    0.91678    1.000
    Si5085   Si       0.85732    0.68604    0.91959    1.000
    Si5086   Si       0.82577    0.75158    0.94163    1.000
    Si5087   Si       0.87485    0.74568    0.88222    1.000
    N5088    N        0.83436    0.85965    0.06018    1.000
    N5089    N        0.85613    0.81746    0.01804    1.000
    Si5090   Si       0.81736    0.83892    0.02507    1.000
    N5091    N        0.83283    0.98146    0.09050    1.000
    Si5092   Si       0.84358    0.93936    0.01681    1.000
    N5093    N        0.85164    0.98593    0.01660    1.000
    N5094    N        0.84382    0.91263    0.11197    1.000
    Si5095   Si       0.86175    0.95320    0.10795    1.000
    Si5096   Si       0.82814    0.99942    0.05187    1.000
    Si5097   Si       0.81763    0.89597    0.07990    1.000
    N5098    N        0.81418    0.92427    0.04683    1.000
    N5099    N        0.81688    0.86817    0.16719    1.000
    N5100    N        0.84162    0.80123    0.13989    1.000
    N5101    N        0.81160    0.86420    0.24038    1.000
    N5102    N        0.85527    0.80791    0.24834    1.000
    Si5103   Si       0.81431    0.82118    0.23784    1.000
    Si5104   Si       0.84211    0.75857    0.15141    1.000
    Si5105   Si       0.83833    0.99938    0.16931    1.000
    N5106    N        0.85118    0.97248    0.20858    1.000
    Si5107   Si       0.82993    0.94277    0.23432    1.000
    Si5108   Si       0.85049    0.88818    0.14635    1.000
    N5109    N        0.86423    0.97156    0.14807    1.000
    N5110    N        0.84693    0.84760    0.29856    1.000
    N5111    N        0.82396    0.80097    0.34547    1.000
    Si5112   Si       0.82092    0.84425    0.33316    1.000
    N5113    N        0.84409    0.86507    0.36673    1.000
    Si5114   Si       0.86544    0.78815    0.34868    1.000
    Si5115   Si       0.83483    0.88118    0.27344    1.000
    Si5116   Si       0.83798    0.93902    0.30322    1.000
    N5117    N        0.82446    0.96279    0.33662    1.000
    N5118    N        0.82626    0.96661    0.26983    1.000
    Si5119   Si       0.84779    0.99964    0.33770    1.000
    N5120    N        0.85720    0.91070    0.25168    1.000
    N5121    N        0.81011    0.90683    0.29774    1.000
    Si5122   Si       0.81331    0.00666    0.27056    1.000
    Si5123   Si       0.85072    0.87811    0.40928    1.000
    Si5124   Si       0.85254    0.82571    0.46921    1.000
    N5125    N        0.82973    0.85267    0.44265    1.000
    N5126    N        0.84040    0.78484    0.46849    1.000
    N5127    N        0.85196    0.91705    0.42621    1.000
    N5128    N        0.85810    0.00420    0.37981    1.000
    Si5129   Si       0.82413    0.00725    0.40537    1.000
    Si5130   Si       0.84499    0.98671    0.47788    1.000
    N5131    N        0.85324    0.77777    0.60483    1.000
    N5132    N        0.84782    0.83202    0.51360    1.000
    Si5133   Si       0.86286    0.85831    0.57149    1.000
    N5134    N        0.82083    0.86872    0.56837    1.000
    N5135    N        0.84457    0.76202    0.54080    1.000
    Si5136   Si       0.82094    0.78383    0.51196    1.000
    Si5137   Si       0.87198    0.78049    0.56669    1.000
    Si5138   Si       0.81729    0.75734    0.61752    1.000
    N5139    N        0.86065    0.99809    0.60247    1.000
    N5140    N        0.84692    0.94137    0.53783    1.000
    N5141    N        0.81839    0.93902    0.60042    1.000
    Si5142   Si       0.81818    0.96290    0.56434    1.000
    N5143    N        0.84368    0.82193    0.65438    1.000
    Si5144   Si       0.84555    0.86272    0.64479    1.000
    N5145    N        0.81800    0.77799    0.70556    1.000
    N5146    N        0.82411    0.88128    0.74146    1.000
    N5147    N        0.86501    0.87857    0.68061    1.000
    N5148    N        0.86721    0.98303    0.71585    1.000
    N5149    N        0.82002    0.99015    0.66102    1.000
    Si5150   Si       0.86243    0.92171    0.68541    1.000
    N5151    N        0.86829    0.94543    0.65013    1.000
    Si5152   Si       0.82559    0.97716    0.70137    1.000
    Si5153   Si       0.84081    0.96829    0.62705    1.000
    N5154    N        0.82230    0.93334    0.69892    1.000
    Si5155   Si       0.83635    0.77364    0.82354    1.000
    N5156    N        0.83018    0.82414    0.76183    1.000
    Si5157   Si       0.85131    0.84974    0.82192    1.000
    N5158    N        0.86541    0.80751    0.82276    1.000
    Si5159   Si       0.85902    0.85686    0.75217    1.000
    N5160    N        0.82170    0.76068    0.78260    1.000
    N5161    N        0.87188    0.87342    0.79158    1.000
    N5162    N        0.87345    0.85400    0.86344    1.000
    Si5163   Si       0.85501    0.97930    0.79567    1.000
    N5164    N        0.82268    0.91007    0.86431    1.000
    N5165    N        0.81325    0.97869    0.80060    1.000
    N5166    N        0.81409    0.84618    0.89279    1.000
    Si5167   Si       0.83621    0.81113    0.90979    1.000
    Si5168   Si       0.84560    0.86938    0.96154    1.000
    N5169    N        0.84997    0.82779    0.94797    1.000
    N5170    N        0.86866    0.78875    0.89205    1.000
    Si5171   Si       0.86548    0.79995    0.97881    1.000
    N5172    N        0.84163    0.76387    0.97914    1.000
    N5173    N        0.81211    0.86273    0.99027    1.000
    Si5174   Si       0.84354    0.88218    0.89195    1.000
    N5175    N        0.87146    0.00336    0.94609    1.000
    Si5176   Si       0.84146    0.99047    0.97367    1.000
    N5177    N        0.84717    0.96874    0.88698    1.000
    N5178    N        0.82646    0.89381    0.93262    1.000
    N5179    N        0.83723    0.94641    0.97302    1.000
    Si5180   Si       0.91598    0.10249    0.06965    1.000
    N5181    N        0.89598    0.01330    0.05361    1.000
    N5182    N        0.87828    0.08434    0.07057    1.000
    N5183    N        0.88394    0.06783    0.00350    1.000
    Si5184   Si       0.87630    0.05077    0.04297    1.000
    N5185    N        0.89176    0.03096    0.12368    1.000
    N5186    N        0.88534    0.20202    0.07460    1.000
    Si5187   Si       0.88089    0.23960    0.05105    1.000
    N5188    N        0.91551    0.14372    0.05296    1.000
    N5189    N        0.89794    0.23412    0.01053    1.000
    Si5190   Si       0.87743    0.16532    0.05430    1.000
    Si5191   Si       0.89026    0.20219    0.11943    1.000
    Si5192   Si       0.91091    0.02145    0.16108    1.000
    Si5193   Si       0.92287    0.09287    0.14999    1.000
    N5194    N        0.87929    0.09314    0.15776    1.000
    Si5195   Si       0.92319    0.22884    0.22298    1.000
    Si5196   Si       0.87575    0.16885    0.23577    1.000
    N5197    N        0.88294    0.15724    0.19511    1.000
    N5198    N        0.89598    0.24221    0.13337    1.000
    Si5199   Si       0.92201    0.16425    0.17880    1.000
    N5200    N        0.92436    0.18075    0.13687    1.000
    Si5201   Si       0.92003    0.02931    0.33155    1.000
    N5202    N        0.91336    0.06958    0.34530    1.000
    Si5203   Si       0.87889    0.08503    0.32579    1.000
    N5204    N        0.88098    0.07834    0.28382    1.000
    N5205    N        0.87848    0.12737    0.33771    1.000
    N5206    N        0.88614    0.00623    0.32017    1.000
    Si5207   Si       0.90065    0.09913    0.25072    1.000
    N5208    N        0.91637    0.18209    0.31580    1.000
    Si5209   Si       0.90156    0.16414    0.35204    1.000
    N5210    N        0.90480    0.14157    0.25737    1.000
    N5211    N        0.93092    0.23737    0.34794    1.000
    N5212    N        0.89175    0.20999    0.24431    1.000
    N5213    N        0.91259    0.02180    0.42262    1.000
    Si5214   Si       0.90895    0.08539    0.48476    1.000
    N5215    N        0.91919    0.08891    0.40638    1.000
    N5216    N        0.88413    0.04192    0.48058    1.000
    N5217    N        0.87559    0.10252    0.46288    1.000
    Si5218   Si       0.87618    0.09841    0.41863    1.000
    Si5219   Si       0.89871    0.23289    0.37503    1.000
    N5220    N        0.87735    0.25530    0.49097    1.000
    N5221    N        0.91724    0.25083    0.41338    1.000
    N5222    N        0.88645    0.19231    0.38202    1.000
    N5223    N        0.87715    0.16847    0.44888    1.000
    N5224    N        0.91194    0.04774    0.59436    1.000
    N5225    N        0.89894    0.07865    0.52833    1.000
    Si5226   Si       0.88716    0.07518    0.57052    1.000
    N5227    N        0.88461    0.11659    0.57736    1.000
    Si5228   Si       0.91549    0.12233    0.54383    1.000
    N5229    N        0.92276    0.12843    0.50027    1.000
    N5230    N        0.92283    0.16459    0.55696    1.000
    Si5231   Si       0.88617    0.18410    0.55168    1.000
    N5232    N        0.89448    0.22328    0.54003    1.000
    Si5233   Si       0.91377    0.23384    0.50298    1.000
    N5234    N        0.92407    0.25758    0.61884    1.000
    N5235    N        0.87800    0.11377    0.70120    1.000
    Si5236   Si       0.88298    0.07118    0.69139    1.000
    N5237    N        0.89906    0.05337    0.72733    1.000
    N5238    N        0.90200    0.08367    0.65490    1.000
    Si5239   Si       0.89382    0.12664    0.66014    1.000
    Si5240   Si       0.93112    0.06941    0.62595    1.000
    Si5241   Si       0.89079    0.13417    0.73628    1.000
    Si5242   Si       0.87551    0.20244    0.70858    1.000
    N5243    N        0.90039    0.17693    0.73045    1.000
    Si5244   Si       0.89131    0.24737    0.64616    1.000
    N5245    N        0.89446    0.21303    0.67115    1.000
    Si5246   Si       0.91404    0.07112    0.76380    1.000
    N5247    N        0.88039    0.07589    0.79056    1.000
    N5248    N        0.92699    0.11122    0.75271    1.000
    N5249    N        0.92972    0.08343    0.84889    1.000
    N5250    N        0.91174    0.15465    0.84711    1.000
    N5251    N        0.91068    0.23287    0.83950    1.000
    Si5252   Si       0.90687    0.19668    0.86337    1.000
    Si5253   Si       0.87414    0.14064    0.86363    1.000
    N5254    N        0.92591    0.22892    0.77156    1.000
    Si5255   Si       0.87609    0.25762    0.82763    1.000
    N5256    N        0.88820    0.03464    0.88614    1.000
    N5257    N        0.88005    0.10850    0.89314    1.000
    Si5258   Si       0.90880    0.07396    0.88533    1.000
    Si5259   Si       0.91205    0.01174    0.95844    1.000
    Si5260   Si       0.92713    0.07728    0.99686    1.000
    Si5261   Si       0.87440    0.16707    0.97636    1.000
    N5262    N        0.91668    0.17592    0.98239    1.000
    Si5263   Si       0.88981    0.25642    0.97536    1.000
    N5264    N        0.89418    0.23387    0.93697    1.000
    N5265    N        0.90196    0.32722    0.09528    1.000
    Si5266   Si       0.90595    0.30687    0.05700    1.000
    N5267    N        0.90745    0.26734    0.07136    1.000
    N5268    N        0.87286    0.48463    0.07545    1.000
    N5269    N        0.88491    0.39477    0.02098    1.000
    Si5270   Si       0.88915    0.45768    0.10528    1.000
    N5271    N        0.88538    0.41789    0.08670    1.000
    Si5272   Si       0.91102    0.41689    0.05027    1.000
    Si5273   Si       0.91487    0.50031    0.06790    1.000
    N5274    N        0.92837    0.47276    0.10128    1.000
    N5275    N        0.92324    0.45684    0.03615    1.000
    N5276    N        0.91461    0.26054    0.19658    1.000
    Si5277   Si       0.92028    0.34434    0.23330    1.000
    N5278    N        0.89807    0.36827    0.20485    1.000
    Si5279   Si       0.90915    0.37876    0.16244    1.000
    N5280    N        0.87336    0.37403    0.13781    1.000
    Si5281   Si       0.88159    0.26089    0.16874    1.000
    Si5282   Si       0.87103    0.33155    0.12777    1.000
    Si5283   Si       0.89271    0.44831    0.18120    1.000
    N5284    N        0.91466    0.48370    0.19142    1.000
    N5285    N        0.92312    0.42001    0.16515    1.000
    N5286    N        0.90939    0.36276    0.32198    1.000
    N5287    N        0.89668    0.31856    0.26228    1.000
    Si5288   Si       0.92300    0.33144    0.29492    1.000
    Si5289   Si       0.91114    0.35563    0.36715    1.000
    Si5290   Si       0.89241    0.39528    0.30049    1.000
    N5291    N        0.91413    0.49476    0.31928    1.000
    Si5292   Si       0.91540    0.46335    0.28748    1.000
    N5293    N        0.87714    0.42240    0.33337    1.000
    N5294    N        0.92509    0.42111    0.28704    1.000
    Si5295   Si       0.89603    0.42811    0.37371    1.000
    N5296    N        0.86949    0.46265    0.27935    1.000
    Si5297   Si       0.89702    0.34749    0.46823    1.000
    Si5298   Si       0.91009    0.29456    0.41772    1.000
    N5299    N        0.92330    0.31540    0.45499    1.000
    N5300    N        0.91407    0.38027    0.49379    1.000
    N5301    N        0.87648    0.37077    0.43896    1.000
    Si5302   Si       0.89610    0.46861    0.47112    1.000
    N5303    N        0.92179    0.39394    0.38245    1.000
    N5304    N        0.92593    0.44564    0.44903    1.000
    N5305    N        0.92279    0.46152    0.38037    1.000
    N5306    N        0.89867    0.34865    0.56021    1.000
    Si5307   Si       0.91025    0.34581    0.60183    1.000
    N5308    N        0.87936    0.32104    0.62084    1.000
    N5309    N        0.92762    0.38428    0.61451    1.000
    Si5310   Si       0.89979    0.38513    0.53664    1.000
    N5311    N        0.87963    0.46190    0.57861    1.000
    N5312    N        0.90032    0.45029    0.51045    1.000
    Si5313   Si       0.92154    0.47494    0.58420    1.000
    N5314    N        0.92833    0.41329    0.55491    1.000
    N5315    N        0.88999    0.34290    0.69177    1.000
    N5316    N        0.89196    0.28199    0.67243    1.000
    Si5317   Si       0.92106    0.31120    0.69530    1.000
    N5318    N        0.92263    0.28999    0.73308    1.000
    Si5319   Si       0.87921    0.37032    0.72595    1.000
    N5320    N        0.91214    0.39490    0.74424    1.000
    N5321    N        0.87819    0.43018    0.64320    1.000
    Si5322   Si       0.91934    0.41991    0.63765    1.000
    Si5323   Si       0.89225    0.32534    0.79197    1.000
    N5324    N        0.88661    0.28165    0.79227    1.000
    Si5325   Si       0.88999    0.32160    0.86448    1.000
    N5326    N        0.87751    0.34286    0.82878    1.000
    Si5327   Si       0.89899    0.26006    0.75548    1.000
    N5328    N        0.92552    0.46293    0.86678    1.000
    N5329    N        0.88019    0.40656    0.86489    1.000
    Si5330   Si       0.89529    0.44064    0.84374    1.000
    Si5331   Si       0.91216    0.42881    0.77016    1.000
    N5332    N        0.92242    0.42857    0.81202    1.000
    N5333    N        0.87497    0.44870    0.76479    1.000
    N5334    N        0.87806    0.34741    0.89720    1.000
    N5335    N        0.91190    0.29217    0.97058    1.000
    Si5336   Si       0.89713    0.32391    0.99665    1.000
    Si5337   Si       0.88894    0.38231    0.97853    1.000
    Si5338   Si       0.88995    0.38923    0.90297    1.000
    N5339    N        0.91780    0.48898    0.97476    1.000
    N5340    N        0.87508    0.40418    0.94372    1.000
    Si5341   Si       0.92278    0.47718    0.93361    1.000
    N5342    N        0.88270    0.46694    0.92120    1.000
    Si5343   Si       0.91144    0.61082    0.09498    1.000
    N5344    N        0.91378    0.54134    0.08603    1.000
    Si5345   Si       0.89759    0.62747    0.02794    1.000
    N5346    N        0.92022    0.59027    0.01679    1.000
    N5347    N        0.87839    0.61839    0.06856    1.000
    N5348    N        0.92482    0.52162    0.02809    1.000
    Si5349   Si       0.89171    0.55269    0.12098    1.000
    Si5350   Si       0.92096    0.67956    0.07386    1.000
    N5351    N        0.89375    0.73554    0.02712    1.000
    N5352    N        0.88021    0.69301    0.08297    1.000
    N5353    N        0.92510    0.64969    0.10698    1.000
    N5354    N        0.92909    0.65563    0.03947    1.000
    Si5355   Si       0.87411    0.73663    0.07212    1.000
    Si5356   Si       0.93092    0.73574    0.11746    1.000
    Si5357   Si       0.88256    0.51211    0.19130    1.000
    N5358    N        0.89654    0.53480    0.22610    1.000
    N5359    N        0.91171    0.58862    0.13339    1.000
    N5360    N        0.87345    0.52776    0.15252    1.000
    Si5361   Si       0.92583    0.72614    0.23427    1.000
    Si5362   Si       0.88854    0.71943    0.18277    1.000
    Si5363   Si       0.90250    0.65033    0.21316    1.000
    N5364    N        0.90914    0.70804    0.14316    1.000
    N5365    N        0.92316    0.64229    0.17622    1.000
    N5366    N        0.90320    0.69427    0.21694    1.000
    Si5367   Si       0.88876    0.55799    0.26268    1.000
    Si5368   Si       0.87910    0.51882    0.32739    1.000
    Si5369   Si       0.90267    0.62715    0.28175    1.000
    N5370    N        0.87714    0.55359    0.35624    1.000
    N5371    N        0.87360    0.59943    0.26325    1.000
    N5372    N        0.93115    0.55545    0.27478    1.000
    N5373    N        0.90771    0.71594    0.30955    1.000
    Si5374   Si       0.89125    0.68271    0.33190    1.000
    N5375    N        0.92002    0.66314    0.36097    1.000
    Si5376   Si       0.87572    0.73974    0.29011    1.000
    N5377    N        0.87595    0.65587    0.30179    1.000
    N5378    N        0.89242    0.74849    0.25105    1.000
    N5379    N        0.92575    0.63354    0.24565    1.000
    N5380    N        0.90091    0.51116    0.47922    1.000
    Si5381   Si       0.90482    0.55996    0.38980    1.000
    N5382    N        0.90856    0.61142    0.45580    1.000
    N5383    N        0.93206    0.52759    0.38229    1.000
    Si5384   Si       0.92469    0.71170    0.45765    1.000
    N5385    N        0.89649    0.73101    0.48497    1.000
    Si5386   Si       0.90963    0.64206    0.48644    1.000
    N5387    N        0.90936    0.70978    0.41608    1.000
    Si5388   Si       0.89504    0.67541    0.39557    1.000
    Si5389   Si       0.90697    0.75079    0.40061    1.000
    N5390    N        0.89177    0.57682    0.56501    1.000
    Si5391   Si       0.90994    0.58611    0.52525    1.000
    N5392    N        0.91477    0.51817    0.59130    1.000
    Si5393   Si       0.87960    0.53604    0.57532    1.000
    N5394    N        0.92234    0.62664    0.52490    1.000
    Si5395   Si       0.87983    0.61363    0.58391    1.000
    N5396    N        0.87931    0.57409    0.49754    1.000
    N5397    N        0.91461    0.63753    0.59120    1.000
    N5398    N        0.90289    0.74874    0.56529    1.000
    N5399    N        0.89593    0.68697    0.54282    1.000
    Si5400   Si       0.90963    0.72561    0.52598    1.000
    Si5401   Si       0.90319    0.70799    0.58651    1.000
    Si5402   Si       0.92867    0.65781    0.55516    1.000
    N5403    N        0.89501    0.59222    0.71221    1.000
    N5404    N        0.90505    0.55649    0.64927    1.000
    Si5405   Si       0.92375    0.57961    0.68084    1.000
    N5406    N        0.90073    0.51328    0.73404    1.000
    Si5407   Si       0.89050    0.55709    0.73788    1.000
    Si5408   Si       0.88992    0.63039    0.73309    1.000
    N5409    N        0.92549    0.72851    0.69220    1.000
    N5410    N        0.90095    0.70366    0.63368    1.000
    N5411    N        0.90652    0.66130    0.70482    1.000
    Si5412   Si       0.90143    0.70286    0.71696    1.000
    Si5413   Si       0.91273    0.59956    0.79821    1.000
    N5414    N        0.91906    0.56752    0.77091    1.000
    N5415    N        0.87851    0.51681    0.86407    1.000
    Si5416   Si       0.92249    0.50794    0.86868    1.000
    N5417    N        0.91457    0.63303    0.76899    1.000
    N5418    N        0.91957    0.70682    0.75857    1.000
    N5419    N        0.93535    0.67307    0.82392    1.000
    Si5420   Si       0.93383    0.67047    0.77968    1.000
    N5421    N        0.87105    0.58017    0.91070    1.000
    N5422    N        0.92092    0.61411    0.94587    1.000
    Si5423   Si       0.90741    0.60327    0.90512    1.000
    N5424    N        0.89257    0.55613    0.97120    1.000
    Si5425   Si       0.92589    0.58271    0.97385    1.000
    Si5426   Si       0.89484    0.52132    0.99626    1.000
    N5427    N        0.93088    0.51415    0.90975    1.000
    N5428    N        0.89512    0.63137    0.87238    1.000
    N5429    N        0.89914    0.68279    0.92999    1.000
    Si5430   Si       0.91158    0.65319    0.95965    1.000
    Si5431   Si       0.92997    0.70311    0.90543    1.000
    N5432    N        0.88385    0.64791    0.99302    1.000
    N5433    N        0.91224    0.72560    0.87411    1.000
    N5434    N        0.90161    0.86619    0.03075    1.000
    N5435    N        0.88398    0.81838    0.08641    1.000
    Si5436   Si       0.92201    0.79864    0.07974    1.000
    Si5437   Si       0.92353    0.76314    0.01250    1.000
    Si5438   Si       0.87362    0.84162    0.05141    1.000
    N5439    N        0.90967    0.75926    0.08812    1.000
    N5440    N        0.88394    0.93483    0.03214    1.000
    Si5441   Si       0.91393    0.90621    0.04371    1.000
    Si5442   Si       0.89425    0.97760    0.02391    1.000
    N5443    N        0.90181    0.96243    0.09614    1.000
    Si5444   Si       0.91150    0.00482    0.09594    1.000
    Si5445   Si       0.87955    0.81814    0.12957    1.000
    N5446    N        0.88168    0.85806    0.14420    1.000
    Si5447   Si       0.87738    0.78030    0.22282    1.000
    N5448    N        0.91305    0.87219    0.22034    1.000
    N5449    N        0.91402    0.80427    0.21646    1.000
    N5450    N        0.91357    0.79773    0.14856    1.000
    Si5451   Si       0.90726    0.87643    0.17544    1.000
    Si5452   Si       0.92804    0.83683    0.24166    1.000
    N5453    N        0.93291    0.98503    0.17547    1.000
    N5454    N        0.87850    0.91003    0.17372    1.000
    N5455    N        0.90980    0.94387    0.21776    1.000
    Si5456   Si       0.88301    0.95141    0.18326    1.000
    N5457    N        0.90858    0.00530    0.24672    1.000
    Si5458   Si       0.90135    0.90931    0.24285    1.000
    Si5459   Si       0.88794    0.85963    0.36312    1.000
    N5460    N        0.92011    0.82860    0.28412    1.000
    N5461    N        0.89633    0.81673    0.36014    1.000
    N5462    N        0.91138    0.87560    0.33039    1.000
    Si5463   Si       0.87655    0.81786    0.28467    1.000
    N5464    N        0.87296    0.77794    0.30809    1.000
    Si5465   Si       0.91817    0.91555    0.31213    1.000
    N5466    N        0.87862    0.93047    0.31420    1.000
    N5467    N        0.89578    0.82834    0.47482    1.000
    N5468    N        0.90085    0.77339    0.43665    1.000
    N5469    N        0.89419    0.87246    0.40293    1.000
    Si5470   Si       0.92464    0.80547    0.45362    1.000
    N5471    N        0.90935    0.95310    0.40086    1.000
    Si5472   Si       0.90739    0.00683    0.46294    1.000
    Si5473   Si       0.88965    0.93642    0.43660    1.000
    Si5474   Si       0.89950    0.99540    0.38990    1.000
    N5475    N        0.88348    0.97023    0.46238    1.000
    N5476    N        0.91667    0.90560    0.45527    1.000
    N5477    N        0.88940    0.82190    0.56068    1.000
    Si5478   Si       0.89237    0.84348    0.51695    1.000
    Si5479   Si       0.92689    0.82712    0.58474    1.000
    N5480    N        0.91434    0.80247    0.61670    1.000
    N5481    N        0.88025    0.88222    0.53990    1.000
    N5482    N        0.87400    0.86861    0.61231    1.000
    Si5483   Si       0.91014    0.89323    0.61267    1.000
    N5484    N        0.91593    0.93896    0.51735    1.000
    N5485    N        0.90720    0.92526    0.58344    1.000
    Si5486   Si       0.88554    0.92338    0.54665    1.000
    Si5487   Si       0.92944    0.98055    0.52340    1.000
    N5488    N        0.92684    0.98130    0.61437    1.000
    N5489    N        0.89753    0.00350    0.54357    1.000
    Si5490   Si       0.90221    0.00452    0.58787    1.000
    N5491    N        0.91493    0.77927    0.74094    1.000
    Si5492   Si       0.87643    0.79692    0.63789    1.000
    Si5493   Si       0.90366    0.87731    0.70314    1.000
    N5494    N        0.88276    0.77175    0.67294    1.000
    Si5495   Si       0.91871    0.77080    0.69885    1.000
    N5496    N        0.89446    0.84725    0.73229    1.000
    N5497    N        0.89648    0.91827    0.71567    1.000
    N5498    N        0.92744    0.91781    0.64566    1.000
    Si5499   Si       0.90861    0.95783    0.64921    1.000
    Si5500   Si       0.89170    0.95431    0.73856    1.000
    N5501    N        0.93063    0.98260    0.67696    1.000
    Si5502   Si       0.88756    0.81231    0.86116    1.000
    Si5503   Si       0.92528    0.82266    0.75041    1.000
    N5504    N        0.92783    0.75599    0.80993    1.000
    N5505    N        0.92999    0.80552    0.85725    1.000
    Si5506   Si       0.90256    0.88633    0.86107    1.000
    N5507    N        0.88382    0.99932    0.82649    1.000
    Si5508   Si       0.89124    0.91045    0.79502    1.000
    N5509    N        0.88765    0.91972    0.83656    1.000
    Si5510   Si       0.90900    0.00490    0.86107    1.000
    N5511    N        0.87257    0.94393    0.77533    1.000
    N5512    N        0.90588    0.78066    0.97591    1.000
    Si5513   Si       0.92081    0.87804    0.99234    1.000
    N5514    N        0.88877    0.88056    0.96159    1.000
    N5515    N        0.92337    0.98250    0.99236    1.000
    Si5516   Si       0.87603    0.94167    0.87143    1.000
    N5517    N        0.88304    0.90504    0.89571    1.000
    N5518    N        0.91034    0.96703    0.87981    1.000
    Si5519   Si       0.90991    0.89735    0.92780    1.000
    N5520    N        0.93988    0.07990    0.03810    1.000
    Si5521   Si       0.97546    0.11627    0.10168    1.000
    N5522    N        0.97721    0.02210    0.03531    1.000
    Si5523   Si       0.98131    0.06537    0.04336    1.000
    N5524    N        0.93479    0.10456    0.10806    1.000
    N5525    N        0.97953    0.14536    0.01645    1.000
    Si5526   Si       0.97825    0.23071    0.06163    1.000
    N5527    N        0.95491    0.20535    0.03514    1.000
    Si5528   Si       0.95406    0.16258    0.04973    1.000
    N5529    N        0.95897    0.22588    0.10105    1.000
    N5530    N        0.97736    0.15951    0.08638    1.000
    N5531    N        0.93495    0.07439    0.24092    1.000
    N5532    N        0.93694    0.12243    0.17721    1.000
    Si5533   Si       0.95534    0.06016    0.20537    1.000
    Si5534   Si       0.97875    0.12058    0.18049    1.000
    N5535    N        0.96453    0.02257    0.22583    1.000
    N5536    N        0.93743    0.05551    0.16661    1.000
    Si5537   Si       0.97810    0.18509    0.23007    1.000
    N5538    N        0.95273    0.25538    0.24591    1.000
    Si5539   Si       0.96315    0.18920    0.12361    1.000
    N5540    N        0.94318    0.19436    0.20318    1.000
    N5541    N        0.94876    0.12275    0.30796    1.000
    N5542    N        0.94904    0.03289    0.29955    1.000
    N5543    N        0.97903    0.09756    0.36147    1.000
    Si5544   Si       0.98754    0.10540    0.31909    1.000
    Si5545   Si       0.93738    0.03516    0.25939    1.000
    Si5546   Si       0.93592    0.10239    0.36785    1.000
    Si5547   Si       0.94929    0.21045    0.31651    1.000
    N5548    N        0.96110    0.18328    0.27094    1.000
    N5549    N        0.97991    0.24278    0.30838    1.000
    N5550    N        0.98137    0.18731    0.33724    1.000
    Si5551   Si       0.93316    0.15468    0.28589    1.000
    N5552    N        0.94917    0.06872    0.46853    1.000
    N5553    N        0.97797    0.03605    0.40554    1.000
    Si5554   Si       0.98003    0.10317    0.46634    1.000
    Si5555   Si       0.96835    0.03464    0.48963    1.000
    Si5556   Si       0.94270    0.05591    0.42138    1.000
    N5557    N        0.93737    0.14730    0.37176    1.000
    Si5558   Si       0.97004    0.17428    0.37687    1.000
    N5559    N        0.96505    0.20014    0.41166    1.000
    Si5560   Si       0.94765    0.22949    0.43591    1.000
    Si5561   Si       0.94469    0.16460    0.48521    1.000
    N5562    N        0.97089    0.14415    0.45733    1.000
    N5563    N        0.93309    0.20668    0.47367    1.000
    N5564    N        0.95230    0.10283    0.56149    1.000
    Si5565   Si       0.98249    0.11417    0.58960    1.000
    N5566    N        0.97911    0.03806    0.53028    1.000
    Si5567   Si       0.98259    0.08058    0.53889    1.000
    N5568    N        0.97525    0.17610    0.51378    1.000
    N5569    N        0.96662    0.22072    0.56471    1.000
    Si5570   Si       0.96302    0.17810    0.55521    1.000
    Si5571   Si       0.95629    0.23252    0.60348    1.000
    Si5572   Si       0.97914    0.25164    0.53379    1.000
    N5573    N        0.98502    0.15708    0.58614    1.000
    N5574    N        0.96693    0.09705    0.62672    1.000
    N5575    N        0.95827    0.03994    0.64560    1.000
    Si5576   Si       0.96634    0.12387    0.66392    1.000
    Si5577   Si       0.98946    0.06853    0.65082    1.000
    N5578    N        0.98574    0.09075    0.68732    1.000
    N5579    N        0.93022    0.14841    0.66868    1.000
    Si5580   Si       0.93795    0.19805    0.74123    1.000
    N5581    N        0.95544    0.20748    0.70152    1.000
    N5582    N        0.95625    0.19957    0.63204    1.000
    Si5583   Si       0.93217    0.19156    0.66841    1.000
    Si5584   Si       0.95267    0.05653    0.82374    1.000
    Si5585   Si       0.94351    0.12430    0.84879    1.000
    N5586    N        0.94814    0.01874    0.84632    1.000
    N5587    N        0.94278    0.04215    0.78284    1.000
    N5588    N        0.96785    0.12516    0.81212    1.000
    Si5589   Si       0.96234    0.12911    0.76958    1.000
    Si5590   Si       0.94430    0.23799    0.81023    1.000
    N5591    N        0.96541    0.17051    0.76059    1.000
    N5592    N        0.97819    0.20942    0.81671    1.000
    Si5593   Si       0.96700    0.03566    0.93432    1.000
    Si5594   Si       0.95864    0.10806    0.92864    1.000
    N5595    N        0.94085    0.11012    0.96949    1.000
    N5596    N        0.94044    0.07085    0.91659    1.000
    N5597    N        0.93936    0.04054    0.97788    1.000
    N5598    N        0.95949    0.13039    0.88916    1.000
    Si5599   Si       0.95286    0.14923    0.98135    1.000
    Si5600   Si       0.93485    0.23135    0.92628    1.000
    N5601    N        0.93579    0.19886    0.89614    1.000
    N5602    N        0.95727    0.22581    0.96507    1.000
    Si5603   Si       0.96787    0.17059    0.90448    1.000
    N5604    N        0.97522    0.16026    0.94540    1.000
    Si5605   Si       0.93341    0.21184    0.99805    1.000
    N5606    N        0.97479    0.33548    0.08682    1.000
    Si5607   Si       0.98068    0.37080    0.06378    1.000
    Si5608   Si       0.94129    0.32824    0.11248    1.000
    Si5609   Si       0.95840    0.34241    0.99992    1.000
    N5610    N        0.98540    0.27249    0.05836    1.000
    N5611    N        0.99195    0.36389    0.02016    1.000
    N5612    N        0.93124    0.32379    0.02668    1.000
    Si5613   Si       0.92932    0.25631    0.10731    1.000
    N5614    N        0.94397    0.39133    0.06065    1.000
    Si5615   Si       0.94239    0.48334    0.00951    1.000
    Si5616   Si       0.96794    0.47482    0.11124    1.000
    N5617    N        0.98269    0.49514    0.00460    1.000
    N5618    N        0.98208    0.50999    0.08840    1.000
    N5619    N        0.95162    0.28734    0.12807    1.000
    N5620    N        0.94969    0.32327    0.20965    1.000
    Si5621   Si       0.95391    0.28003    0.20818    1.000
    Si5622   Si       0.96932    0.34772    0.17952    1.000
    N5623    N        0.93992    0.35364    0.14699    1.000
    N5624    N        0.98213    0.26102    0.18174    1.000
    Si5625   Si       0.99067    0.28573    0.14753    1.000
    N5626    N        0.97702    0.45293    0.19840    1.000
    Si5627   Si       0.97968    0.45880    0.24244    1.000
    N5628    N        0.98242    0.39003    0.18167    1.000
    Si5629   Si       0.95787    0.49077    0.18779    1.000
    N5630    N        0.98433    0.43771    0.12628    1.000
    N5631    N        0.97080    0.49928    0.14873    1.000
    Si5632   Si       0.96663    0.42532    0.16323    1.000
    Si5633   Si       0.96848    0.27456    0.27986    1.000
    N5634    N        0.94537    0.35851    0.26705    1.000
    Si5635   Si       0.96065    0.26784    0.33963    1.000
    N5636    N        0.94346    0.29657    0.30913    1.000
    N5637    N        0.98502    0.29041    0.36688    1.000
    Si5638   Si       0.98718    0.34496    0.26423    1.000
    Si5639   Si       0.96314    0.39858    0.28887    1.000
    N5640    N        0.94512    0.48115    0.26008    1.000
    N5641    N        0.97954    0.48758    0.34528    1.000
    N5642    N        0.97961    0.41708    0.32882    1.000
    Si5643   Si       0.93823    0.49427    0.35409    1.000
    N5644    N        0.98447    0.41826    0.25571    1.000
    N5645    N        0.98292    0.36392    0.37536    1.000
    Si5646   Si       0.97241    0.32367    0.39020    1.000
    Si5647   Si       0.95125    0.29374    0.47875    1.000
    N5648    N        0.97747    0.33049    0.49095    1.000
    N5649    N        0.97092    0.26584    0.44809    1.000
    N5650    N        0.95440    0.38006    0.43946    1.000
    Si5651   Si       0.98420    0.35317    0.45548    1.000
    N5652    N        0.92894    0.32119    0.38799    1.000
    N5653    N        0.98222    0.43341    0.39786    1.000
    Si5654   Si       0.93611    0.40725    0.46984    1.000
    Si5655   Si       0.96366    0.39328    0.39766    1.000
    N5656    N        0.96912    0.49433    0.43008    1.000
    Si5657   Si       0.94874    0.45765    0.41516    1.000
    N5658    N        0.94793    0.32144    0.60292    1.000
    Si5659   Si       0.97992    0.32816    0.57468    1.000
    N5660    N        0.97869    0.36780    0.55942    1.000
    N5661    N        0.94485    0.26417    0.51006    1.000
    N5662    N        0.98828    0.26346    0.61470    1.000
    Si5663   Si       0.95646    0.39909    0.58275    1.000
    N5664    N        0.95150    0.47428    0.55292    1.000
    Si5665   Si       0.93943    0.44377    0.52559    1.000
    Si5666   Si       0.98420    0.49746    0.53731    1.000
    Si5667   Si       0.98709    0.45351    0.61605    1.000
    N5668    N        0.94110    0.45450    0.61865    1.000
    N5669    N        0.97170    0.50331    0.49663    1.000
    N5670    N        0.96457    0.42362    0.49708    1.000
    N5671    N        0.95762    0.29790    0.67261    1.000
    N5672    N        0.95052    0.34804    0.71777    1.000
    Si5673   Si       0.95318    0.28887    0.63025    1.000
    Si5674   Si       0.94081    0.49320    0.73646    1.000
    N5675    N        0.98176    0.41454    0.72381    1.000
    Si5676   Si       0.94557    0.39180    0.71694    1.000
    N5677    N        0.93723    0.41252    0.67737    1.000
    Si5678   Si       0.96999    0.44051    0.68746    1.000
    N5679    N        0.96225    0.48366    0.69865    1.000
    Si5680   Si       0.95601    0.31560    0.81913    1.000
    N5681    N        0.96594    0.27535    0.80397    1.000
    Si5682   Si       0.95214    0.31805    0.74828    1.000
    N5683    N        0.93375    0.33347    0.78546    1.000
    N5684    N        0.93114    0.31085    0.85480    1.000
    N5685    N        0.94528    0.45631    0.75959    1.000
    Si5686   Si       0.96360    0.43563    0.82401    1.000
    N5687    N        0.97834    0.42288    0.86424    1.000
    N5688    N        0.98474    0.40938    0.79423    1.000
    Si5689   Si       0.98420    0.43804    0.76265    1.000
    N5690    N        0.98801    0.47303    0.81395    1.000
    N5691    N        0.94938    0.33094    0.92035    1.000
    N5692    N        0.97884    0.30840    0.97872    1.000
    Si5693   Si       0.95222    0.37050    0.93567    1.000
    Si5694   Si       0.94783    0.29705    0.94933    1.000
    N5695    N        0.95177    0.26905    0.91479    1.000
    Si5696   Si       0.95697    0.30168    0.88843    1.000
    N5697    N        0.93146    0.36773    0.97577    1.000
    Si5698   Si       0.94657    0.43347    0.89146    1.000
    N5699    N        0.95943    0.45424    0.92813    1.000
    N5700    N        0.93250    0.39558    0.90670    1.000
    N5701    N        0.94726    0.59492    0.07792    1.000
    Si5702   Si       0.98155    0.60868    0.09815    1.000
    N5703    N        0.98257    0.56224    0.03582    1.000
    Si5704   Si       0.93784    0.56139    0.04787    1.000
    N5705    N        0.99044    0.62873    0.99966    1.000
    N5706    N        0.94870    0.70876    0.08702    1.000
    Si5707   Si       0.96319    0.66105    0.01488    1.000
    Si5708   Si       0.98704    0.71697    0.07041    1.000
    N5709    N        0.98739    0.69479    0.03132    1.000
    N5710    N        0.98762    0.75656    0.05841    1.000
    Si5711   Si       0.98863    0.55769    0.20131    1.000
    N5712    N        0.96686    0.52278    0.21331    1.000
    Si5713   Si       0.94004    0.60269    0.16359    1.000
    Si5714   Si       0.96665    0.62111    0.23574    1.000
    N5715    N        0.96185    0.59063    0.20115    1.000
    N5716    N        0.97529    0.61694    0.14073    1.000
    N5717    N        0.96387    0.75026    0.13875    1.000
    Si5718   Si       0.97270    0.72462    0.17401    1.000
    N5719    N        0.97137    0.68235    0.15702    1.000
    Si5720   Si       0.93324    0.67044    0.14348    1.000
    N5721    N        0.94046    0.74225    0.19719    1.000
    N5722    N        0.98796    0.65187    0.21658    1.000
    N5723    N        0.97272    0.55764    0.33290    1.000
    Si5724   Si       0.95609    0.58126    0.29957    1.000
    N5725    N        0.98474    0.59887    0.27151    1.000
    N5726    N        0.98347    0.62197    0.35929    1.000
    N5727    N        0.93090    0.61515    0.31241    1.000
    Si5728   Si       0.93680    0.52409    0.24550    1.000
    Si5729   Si       0.97826    0.75227    0.36459    1.000
    N5730    N        0.96845    0.74517    0.32444    1.000
    N5731    N        0.96060    0.71182    0.25763    1.000
    Si5732   Si       0.95352    0.64373    0.33778    1.000
    Si5733   Si       0.95079    0.71397    0.30171    1.000
    N5734    N        0.97255    0.67813    0.31805    1.000
    Si5735   Si       0.97174    0.58068    0.36923    1.000
    N5736    N        0.93881    0.58744    0.39803    1.000
    Si5737   Si       0.93948    0.52988    0.48430    1.000
    N5738    N        0.97774    0.62141    0.46159    1.000
    N5739    N        0.94833    0.55461    0.45033    1.000
    Si5740   Si       0.94638    0.59662    0.44112    1.000
    Si5741   Si       0.96024    0.53421    0.41414    1.000
    N5742    N        0.96261    0.73369    0.45686    1.000
    Si5743   Si       0.97621    0.66320    0.47581    1.000
    N5744    N        0.93415    0.67321    0.47236    1.000
    N5745    N        0.95281    0.57658    0.60430    1.000
    N5746    N        0.94144    0.55865    0.51745    1.000
    Si5747   Si       0.98077    0.56648    0.53119    1.000
    Si5748   Si       0.94256    0.61705    0.61858    1.000
    Si5749   Si       0.93458    0.54129    0.62088    1.000
    N5750    N        0.98821    0.53506    0.56169    1.000
    N5751    N        0.99083    0.60375    0.55136    1.000
    N5752    N        0.98511    0.63379    0.61059    1.000
    Si5753   Si       0.97654    0.70832    0.54857    1.000
    N5754    N        0.95076    0.73495    0.52344    1.000
    N5755    N        0.94549    0.69307    0.57559    1.000
    N5756    N        0.98277    0.67219    0.52125    1.000
    Si5757   Si       0.97444    0.52362    0.68375    1.000
    N5758    N        0.95065    0.55404    0.70494    1.000
    N5759    N        0.97009    0.52450    0.63937    1.000
    N5760    N        0.93718    0.61486    0.66005    1.000
    Si5761   Si       0.95489    0.55735    0.74811    1.000
    Si5762   Si       0.94308    0.64511    0.68865    1.000
    N5763    N        0.96218    0.67495    0.66466    1.000
    N5764    N        0.95715    0.74052    0.63336    1.000
    N5765    N        0.97133    0.63507    0.71784    1.000
    Si5766   Si       0.93824    0.70911    0.65629    1.000
    Si5767   Si       0.96008    0.57286    0.85238    1.000
    N5768    N        0.95006    0.53135    0.84233    1.000
    N5769    N        0.96283    0.51899    0.76360    1.000
    N5770    N        0.93924    0.60507    0.83021    1.000
    Si5771   Si       0.97385    0.51374    0.80667    1.000
    N5772    N        0.98605    0.58396    0.75894    1.000
    Si5773   Si       0.98981    0.62655    0.75583    1.000
    N5774    N        0.97739    0.66051    0.77800    1.000
    Si5775   Si       0.94514    0.73595    0.84426    1.000
    Si5776   Si       0.97802    0.67768    0.81733    1.000
    N5777    N        0.97866    0.71880    0.81937    1.000
    N5778    N        0.97489    0.74662    0.75599    1.000
    Si5779   Si       0.93224    0.74739    0.76621    1.000
    Si5780   Si       0.93421    0.64414    0.85499    1.000
    Si5781   Si       0.98410    0.53904    0.99474    1.000
    N5782    N        0.94346    0.57872    0.89125    1.000
    Si5783   Si       0.95997    0.54803    0.91855    1.000
    N5784    N        0.95916    0.55759    0.96215    1.000
    N5785    N        0.94593    0.67352    0.97620    1.000
    N5786    N        0.94927    0.72888    0.93355    1.000
    Si5787   Si       0.96947    0.70970    0.96911    1.000
    N5788    N        0.95311    0.66829    0.88868    1.000
    N5789    N        0.95905    0.74897    0.99138    1.000
    Si5790   Si       0.95869    0.82616    0.01701    1.000
    Si5791   Si       0.96139    0.86603    0.08402    1.000
    N5792    N        0.97507    0.85638    0.04241    1.000
    N5793    N        0.94937    0.82468    0.10033    1.000
    N5794    N        0.93374    0.79680    0.03761    1.000
    N5795    N        0.96241    0.95563    0.06018    1.000
    Si5796   Si       0.97843    0.93507    0.02692    1.000
    N5797    N        0.94211    0.91417    0.00500    1.000
    Si5798   Si       0.93871    0.93987    0.09404    1.000
    Si5799   Si       0.97881    0.99450    0.06948    1.000
    N5800    N        0.93432    0.89942    0.07991    1.000
    N5801    N        0.95533    0.00704    0.10412    1.000
    Si5802   Si       0.94511    0.82816    0.14193    1.000
    N5803    N        0.97294    0.83277    0.23825    1.000
    N5804    N        0.97169    0.80426    0.17239    1.000
    N5805    N        0.94626    0.86933    0.15667    1.000
    Si5806   Si       0.93367    0.78325    0.18491    1.000
    Si5807   Si       0.96703    0.95436    0.17326    1.000
    Si5808   Si       0.93780    0.98201    0.21916    1.000
    Si5809   Si       0.97410    0.89919    0.14431    1.000
    N5810    N        0.95504    0.93668    0.13301    1.000
    N5811    N        0.97643    0.95919    0.22345    1.000
    N5812    N        0.96340    0.82783    0.35013    1.000
    N5813    N        0.97636    0.87335    0.30068    1.000
    Si5814   Si       0.94271    0.84815    0.31594    1.000
    N5815    N        0.94952    0.93135    0.33753    1.000
    Si5816   Si       0.97326    0.92422    0.25325    1.000
    N5817    N        0.93416    0.91357    0.27215    1.000
    Si5818   Si       0.98572    0.91186    0.32153    1.000
    N5819    N        0.93328    0.00466    0.36472    1.000
    N5820    N        0.94103    0.76935    0.38161    1.000
    N5821    N        0.95627    0.79975    0.48480    1.000
    N5822    N        0.97755    0.87619    0.45024    1.000
    N5823    N        0.93894    0.82959    0.42119    1.000
    Si5824   Si       0.93494    0.81165    0.38121    1.000
    Si5825   Si       0.93334    0.87375    0.42611    1.000
    Si5826   Si       0.97041    0.75879    0.49252    1.000
    Si5827   Si       0.93517    0.90601    0.49579    1.000
    N5828    N        0.97845    0.96276    0.38920    1.000
    N5829    N        0.95776    0.89578    0.39605    1.000
    N5830    N        0.94214    0.99986    0.48887    1.000
    Si5831   Si       0.97376    0.00345    0.37650    1.000
    Si5832   Si       0.94560    0.93739    0.38195    1.000
    N5833    N        0.95960    0.81748    0.55648    1.000
    Si5834   Si       0.96222    0.83224    0.51526    1.000
    N5835    N        0.94223    0.86403    0.60196    1.000
    N5836    N        0.98778    0.79035    0.61014    1.000
    N5837    N        0.93421    0.86397    0.51180    1.000
    Si5838   Si       0.98108    0.88291    0.60816    1.000
    N5839    N        0.97724    0.92390    0.59448    1.000
    N5840    N        0.95978    0.97614    0.55448    1.000
    Si5841   Si       0.94459    0.94895    0.58504    1.000
    N5842    N        0.97686    0.91384    0.50773    1.000
    N5843    N        0.96747    0.82148    0.73667    1.000
    Si5844   Si       0.96557    0.82847    0.69551    1.000
    N5845    N        0.94595    0.79429    0.67460    1.000
    N5846    N        0.94429    0.86812    0.69081    1.000
    Si5847   Si       0.95060    0.78398    0.63309    1.000
    Si5848   Si       0.95992    0.90326    0.67243    1.000
    N5849    N        0.97321    0.93265    0.70023    1.000
    Si5850   Si       0.95455    0.99832    0.64374    1.000
    Si5851   Si       0.95413    0.97200    0.71153    1.000
    N5852    N        0.97895    0.00493    0.72894    1.000
    N5853    N        0.98665    0.97059    0.64182    1.000
    Si5854   Si       0.95233    0.87164    0.80607    1.000
    Si5855   Si       0.94182    0.79833    0.81717    1.000
    N5856    N        0.94381    0.88009    0.84744    1.000
    N5857    N        0.98465    0.79073    0.80656    1.000
    N5858    N        0.93463    0.83284    0.79136    1.000
    N5859    N        0.97452    0.75826    0.87072    1.000
    Si5860   Si       0.97994    0.98891    0.83933    1.000
    Si5861   Si       0.95760    0.94019    0.77713    1.000
    N5862    N        0.97560    0.97809    0.79693    1.000
    N5863    N        0.93484    0.90658    0.78714    1.000
    Si5864   Si       0.95692    0.00491    0.76605    1.000
    N5865    N        0.97155    0.95639    0.86704    1.000
    N5866    N        0.93262    0.96931    0.75074    1.000
    Si5867   Si       0.93879    0.76666    0.95172    1.000
    N5868    N        0.94348    0.84515    0.97982    1.000
    N5869    N        0.94095    0.87036    0.91415    1.000
    Si5870   Si       0.95830    0.83987    0.94082    1.000
    N5871    N        0.95409    0.79786    0.92602    1.000
    Si5872   Si       0.96935    0.86966    0.87998    1.000
    Si5873   Si       0.96331    0.79737    0.88430    1.000
    N5874    N        0.93012    0.93357    0.93926    1.000
    N5875    N        0.94064    0.00073    0.92679    1.000
    Si5876   Si       0.94559    0.94752    0.97542    1.000
    Si5877   Si       0.94598    0.96180    0.90620    1.000
    N5878    N        0.98318    0.96135    0.99352    1.000
    Si5879   Si       0.96232    0.00676    0.99756    1.000
