# CIF file generated by openbabel 3.1.1, see https://openbabel.org
data_I
_chemical_name_common '3.01-90.aims'
_cell_length_a 39.8871
_cell_length_b 39.8871
_cell_length_c 39.8871
_cell_angle_alpha 90
_cell_angle_beta 90
_cell_angle_gamma 90
loop_
    _atom_site_label
    _atom_site_type_symbol
    _atom_site_fract_x
    _atom_site_fract_y
    _atom_site_fract_z
    _atom_site_occupancy
    N0       N        0.06831    0.02529    0.08569    1.000
    Si1      Si       0.03227    0.03784    0.10782    1.000
    N2       N        0.02010    0.02631    0.03956    1.000
    Si3      Si       0.10067    0.05246    0.10113    1.000
    N4       N        0.10409    0.05614    0.99884    1.000
    N5       N        0.99846    0.01054    0.10382    1.000
    Si6      Si       0.16171    0.04076    0.09583    1.000
    Si7      Si       0.13819    0.04749    0.02553    1.000
    N8       N        0.12941    0.05177    0.06840    1.000
    N9       N        0.04197    0.03904    0.14939    1.000
    N10      N        0.03661    0.01160    0.21506    1.000
    N11      N        0.09126    0.05108    0.24584    1.000
    Si12     Si       0.06524    0.01389    0.24680    1.000
    Si13     Si       0.02233    0.00908    0.17542    1.000
    Si14     Si       0.12966    0.02367    0.24115    1.000
    Si15     Si       0.12923    0.06344    0.17369    1.000
    N16      N        0.13280    0.04854    0.13117    1.000
    N17      N        0.13659    0.02698    0.19672    1.000
    N18      N        0.03695    0.03082    0.34313    1.000
    Si19     Si       0.08140    0.02523    0.31777    1.000
    N20      N        0.05363    0.00566    0.28795    1.000
    N21      N        0.15352    0.06304    0.25098    1.000
    N22      N        0.12169    0.02908    0.29437    1.000
    Si23     Si       0.22244    0.03613    0.33036    1.000
    N24      N        0.18242    0.04793    0.31981    1.000
    Si25     Si       0.16222    0.01399    0.29919    1.000
    N26      N        0.22933    0.04587    0.37039    1.000
    N27      N        0.09436    0.01335    0.46675    1.000
    N28      N        0.06547    0.03220    0.40216    1.000
    N29      N        0.99874    0.03587    0.39966    1.000
    Si30     Si       0.03170    0.01462    0.38194    1.000
    Si31     Si       0.09714    0.01351    0.42473    1.000
    Si32     Si       0.22683    0.02149    0.40410    1.000
    N33      N        0.13665    0.03132    0.41712    1.000
    Si34     Si       0.17203    0.01105    0.43066    1.000
    N35      N        0.20693    0.03905    0.43813    1.000
    Si36     Si       0.06942    0.04548    0.56512    1.000
    N37      N        0.06711    0.02082    0.52942    1.000
    N38      N        0.08725    0.02071    0.59868    1.000
    N39      N        0.03275    0.04952    0.58932    1.000
    N40      N        0.01024    0.05984    0.50712    1.000
    Si41     Si       0.09206    0.04185    0.49853    1.000
    Si42     Si       0.04447    0.01916    0.61850    1.000
    Si43     Si       0.99804    0.06899    0.60432    1.000
    Si44     Si       0.12060    0.04451    0.61805    1.000
    N45      N        0.13423    0.04680    0.51459    1.000
    Si46     Si       0.22156    0.03889    0.51427    1.000
    N47      N        0.14728    0.06271    0.58819    1.000
    N48      N        0.19119    0.01064    0.52729    1.000
    N49      N        0.23806    0.04795    0.55395    1.000
    Si50     Si       0.06977    0.05935    0.67420    1.000
    N51      N        0.10295    0.05553    0.70263    1.000
    N52      N        0.05740    0.01996    0.66008    1.000
    Si53     Si       0.09658    0.05139    0.74405    1.000
    Si54     Si       0.21533    0.05516    0.74027    1.000
    N55      N        0.22512    0.01168    0.73841    1.000
    N56      N        0.23579    0.04882    0.67531    1.000
    Si57     Si       0.19273    0.04627    0.67780    1.000
    N58      N        0.16590    0.06660    0.65088    1.000
    N59      N        0.18071    0.06527    0.71601    1.000
    Si60     Si       0.03191    0.04232    0.78180    1.000
    N61      N        0.08760    0.02731    0.82547    1.000
    N62      N        0.02863    0.05596    0.82279    1.000
    Si63     Si       0.08435    0.05568    0.85661    1.000
    Si64     Si       0.04233    0.01234    0.83877    1.000
    N65      N        0.05696    0.06709    0.75675    1.000
    N66      N        0.09865    0.00971    0.75705    1.000
    N67      N        0.99239    0.05187    0.76273    1.000
    N68      N        0.15335    0.01521    0.80664    1.000
    Si69     Si       0.16076    0.05737    0.79439    1.000
    N70      N        0.20551    0.01049    0.84983    1.000
    N71      N        0.20315    0.06240    0.78183    1.000
    N72      N        0.03984    0.03928    0.97119    1.000
    N73      N        0.06095    0.02572    0.87949    1.000
    Si74     Si       0.05283    0.03684    0.92221    1.000
    N75      N        0.09157    0.02016    0.93863    1.000
    Si76     Si       0.08072    0.02483    0.98101    1.000
    N77      N        0.21152    0.02169    0.98858    1.000
    N78      N        0.12180    0.05752    0.87944    1.000
    N79      N        0.16365    0.01133    0.91397    1.000
    Si80     Si       0.12079    0.02261    0.90566    1.000
    Si81     Si       0.19452    0.03173    0.88935    1.000
    N82      N        0.22700    0.03323    0.91800    1.000
    N83      N        0.05862    0.09373    0.04204    1.000
    Si84     Si       0.08487    0.09362    0.00853    1.000
    Si85     Si       0.06340    0.11035    0.08150    1.000
    N86      N        0.07666    0.08469    0.11478    1.000
    N87      N        0.99197    0.08287    0.01182    1.000
    N88      N        0.01358    0.07553    0.08949    1.000
    Si89     Si       0.02109    0.07095    0.04521    1.000
    N90      N        0.23100    0.08832    0.02214    1.000
    Si91     Si       0.22322    0.09200    0.06243    1.000
    Si92     Si       0.19259    0.10981    0.11158    1.000
    N93      N        0.16739    0.07145    0.00600    1.000
    N94      N        0.19102    0.07183    0.08703    1.000
    N95      N        0.08923    0.07847    0.18325    1.000
    Si96     Si       0.08315    0.08765    0.22465    1.000
    Si97     Si       0.01029    0.10599    0.20816    1.000
    N98      N        0.04238    0.09627    0.23616    1.000
    Si99     Si       0.05771    0.07904    0.15303    1.000
    N100     N        0.02719    0.10614    0.16660    1.000
    N101     N        0.15608    0.12642    0.12619    1.000
    N102     N        0.22622    0.09559    0.13799    1.000
    N103     N        0.21485    0.07410    0.21359    1.000
    N104     N        0.15385    0.09647    0.19139    1.000
    Si105    Si       0.17800    0.09185    0.22950    1.000
    Si106    Si       0.22823    0.10104    0.18195    1.000
    N107     N        0.01407    0.09153    0.31015    1.000
    Si108    Si       0.02793    0.11245    0.27489    1.000
    Si109    Si       0.10740    0.09952    0.34043    1.000
    Si110    Si       0.04143    0.07448    0.33884    1.000
    N111     N        0.10789    0.11337    0.25348    1.000
    N112     N        0.08090    0.07042    0.32119    1.000
    Si113    Si       0.11875    0.07135    0.27809    1.000
    Si114    Si       0.16748    0.08447    0.33479    1.000
    N115     N        0.13730    0.10102    0.30762    1.000
    N116     N        0.13630    0.08069    0.36646    1.000
    N117     N        0.19282    0.11919    0.34669    1.000
    N118     N        0.04605    0.09635    0.37793    1.000
    N119     N        0.09678    0.08898    0.42565    1.000
    Si120    Si       0.03415    0.09096    0.48332    1.000
    Si121    Si       0.09012    0.11400    0.46079    1.000
    N122     N        0.07739    0.08091    0.48941    1.000
    N123     N        0.02478    0.07447    0.44435    1.000
    Si124    Si       0.05623    0.07383    0.41322    1.000
    N125     N        0.23562    0.10634    0.44816    1.000
    N126     N        0.16721    0.09641    0.43399    1.000
    Si127    Si       0.13409    0.07407    0.40949    1.000
    Si128    Si       0.20192    0.07904    0.45375    1.000
    N129     N        0.20209    0.07494    0.49811    1.000
    N130     N        0.09182    0.08026    0.55682    1.000
    N131     N        0.03267    0.11266    0.54383    1.000
    Si132    Si       0.07380    0.11978    0.55535    1.000
    Si133    Si       0.99768    0.08731    0.53728    1.000
    Si134    Si       0.23808    0.08557    0.57644    1.000
    N135     N        0.15221    0.11431    0.53378    1.000
    Si136    Si       0.13348    0.07650    0.54727    1.000
    Si137    Si       0.19384    0.11097    0.51911    1.000
    N138     N        0.21127    0.10050    0.60862    1.000
    Si139    Si       0.17077    0.08913    0.61495    1.000
    N140     N        0.22564    0.11871    0.54745    1.000
    N141     N        0.14432    0.12446    0.61824    1.000
    N142     N        0.01393    0.10525    0.62194    1.000
    N143     N        0.07166    0.12542    0.72624    1.000
    Si144    Si       0.03903    0.09749    0.73120    1.000
    Si145    Si       0.10039    0.11873    0.62843    1.000
    N146     N        0.03378    0.07875    0.69126    1.000
    N147     N        0.09908    0.07571    0.64276    1.000
    Si148    Si       0.00128    0.09278    0.66346    1.000
    Si149    Si       0.13086    0.07543    0.67677    1.000
    N150     N        0.23479    0.09439    0.73170    1.000
    N151     N        0.13553    0.11171    0.70025    1.000
    Si152    Si       0.15295    0.09372    0.73543    1.000
    Si153    Si       0.00408    0.08987    0.83229    1.000
    N154     N        0.08142    0.09808    0.85147    1.000
    N155     N        0.02868    0.12191    0.81541    1.000
    N156     N        0.00457    0.12154    0.75305    1.000
    N157     N        0.15360    0.09260    0.82106    1.000
    Si158    Si       0.15033    0.08975    0.86431    1.000
    N159     N        0.16993    0.12435    0.76247    1.000
    Si160    Si       0.22270    0.09713    0.86664    1.000
    N161     N        0.13314    0.06726    0.76380    1.000
    Si162    Si       0.23744    0.08272    0.80055    1.000
    N163     N        0.99220    0.09088    0.87376    1.000
    N164     N        0.05102    0.07924    0.90767    1.000
    N165     N        0.05639    0.10367    0.97651    1.000
    N166     N        0.99725    0.09788    0.94612    1.000
    Si167    Si       0.02013    0.08003    0.97713    1.000
    Si168    Si       0.01554    0.10133    0.90847    1.000
    Si169    Si       0.07065    0.12073    0.88726    1.000
    N170     N        0.15631    0.11443    0.94795    1.000
    Si171    Si       0.15293    0.10979    0.99046    1.000
    N172     N        0.21704    0.08777    0.95731    1.000
    N173     N        0.18757    0.07267    0.87995    1.000
    Si174    Si       0.20789    0.06520    0.99302    1.000
    Si175    Si       0.01620    0.16789    0.06039    1.000
    N176     N        0.03334    0.13971    0.08963    1.000
    N177     N        0.10002    0.13602    0.07796    1.000
    N178     N        0.02414    0.17573    0.01959    1.000
    Si179    Si       0.04849    0.17534    0.11563    1.000
    Si180    Si       0.11341    0.15513    0.04025    1.000
    N181     N        0.11703    0.12145    0.01247    1.000
    N182     N        0.15336    0.16962    0.05220    1.000
    Si183    Si       0.23261    0.17117    0.06834    1.000
    Si184    Si       0.18019    0.17678    0.01730    1.000
    Si185    Si       0.12200    0.15198    0.11253    1.000
    N186     N        0.21741    0.13139    0.07896    1.000
    N187     N        0.18280    0.13985    0.99729    1.000
    N188     N        0.08364    0.15822    0.13562    1.000
    N189     N        0.07801    0.15525    0.21134    1.000
    Si190    Si       0.00367    0.14163    0.15663    1.000
    Si191    Si       0.09242    0.17205    0.17620    1.000
    N192     N        0.02124    0.18046    0.14945    1.000
    Si193    Si       0.99578    0.17451    0.24429    1.000
    N194     N        0.13785    0.16913    0.17969    1.000
    Si195    Si       0.22129    0.17543    0.18670    1.000
    N196     N        0.22739    0.17056    0.22919    1.000
    Si197    Si       0.16221    0.13326    0.16977    1.000
    N198     N        0.20438    0.13674    0.18039    1.000
    N199     N        0.01697    0.15639    0.34339    1.000
    N200     N        0.05493    0.14498    0.28027    1.000
    Si201    Si       0.03701    0.17314    0.30943    1.000
    N202     N        0.09279    0.13837    0.34657    1.000
    Si203    Si       0.08676    0.14965    0.25182    1.000
    N204     N        0.99193    0.12654    0.25754    1.000
    N205     N        0.11722    0.17651    0.26862    1.000
    N206     N        0.15435    0.16872    0.31556    1.000
    Si207    Si       0.16442    0.15249    0.35471    1.000
    N208     N        0.22099    0.17331    0.30016    1.000
    Si209    Si       0.21823    0.14772    0.26388    1.000
    Si210    Si       0.14197    0.13872    0.27973    1.000
    Si211    Si       0.22418    0.14897    0.33756    1.000
    N212     N        0.19677    0.18376    0.35939    1.000
    N213     N        0.18001    0.12548    0.25882    1.000
    N214     N        0.04835    0.13163    0.46572    1.000
    Si215    Si       0.03964    0.13995    0.37901    1.000
    Si216    Si       0.10532    0.16724    0.38185    1.000
    N217     N        0.06816    0.16275    0.40215    1.000
    N218     N        0.00824    0.15382    0.40787    1.000
    Si219    Si       0.04367    0.16834    0.43945    1.000
    N220     N        0.12476    0.13919    0.45896    1.000
    N221     N        0.14439    0.15072    0.39223    1.000
    Si222    Si       0.15814    0.13918    0.43237    1.000
    N223     N        0.19821    0.14777    0.49428    1.000
    N224     N        0.19624    0.16328    0.43010    1.000
    Si225    Si       0.22534    0.14934    0.45826    1.000
    Si226    Si       0.02771    0.13981    0.59944    1.000
    N227     N        0.08849    0.14666    0.52531    1.000
    Si228    Si       0.00612    0.14751    0.53344    1.000
    N229     N        0.07263    0.13339    0.59598    1.000
    Si230    Si       0.06349    0.17905    0.50859    1.000
    N231     N        0.99509    0.15465    0.57501    1.000
    N232     N        0.02360    0.18452    0.52482    1.000
    Si233    Si       0.13133    0.15287    0.53039    1.000
    N234     N        0.20281    0.16409    0.60277    1.000
    Si235    Si       0.15828    0.16233    0.60341    1.000
    N236     N        0.13250    0.17152    0.56975    1.000
    Si237    Si       0.22683    0.15891    0.56344    1.000
    Si238    Si       0.99236    0.16338    0.65904    1.000
    N239     N        0.02811    0.16741    0.63406    1.000
    Si240    Si       0.10293    0.14199    0.69903    1.000
    N241     N        0.09061    0.14811    0.65896    1.000
    N242     N        0.10899    0.17503    0.72782    1.000
    Si243    Si       0.06757    0.18120    0.64101    1.000
    Si244    Si       0.22729    0.13714    0.62980    1.000
    N245     N        0.21900    0.17281    0.65913    1.000
    N246     N        0.21863    0.16238    0.73244    1.000
    Si247    Si       0.01450    0.14923    0.78639    1.000
    N248     N        0.07112    0.15656    0.85688    1.000
    Si249    Si       0.08623    0.15329    0.75731    1.000
    N250     N        0.05190    0.16923    0.77636    1.000
    N251     N        0.10375    0.13291    0.79142    1.000
    Si252    Si       0.07092    0.12924    0.82319    1.000
    Si253    Si       0.17694    0.16169    0.85503    1.000
    N254     N        0.15741    0.16903    0.81579    1.000
    N255     N        0.21096    0.13583    0.85214    1.000
    Si256    Si       0.14762    0.12909    0.79974    1.000
    Si257    Si       0.21385    0.12641    0.75470    1.000
    N258     N        0.23546    0.12536    0.79223    1.000
    N259     N        0.03389    0.13974    0.91191    1.000
    Si260    Si       0.00334    0.16994    0.91190    1.000
    N261     N        0.07586    0.16944    0.96770    1.000
    Si262    Si       0.06321    0.13595    0.94614    1.000
    N263     N        0.09587    0.12652    0.92091    1.000
    N264     N        0.13590    0.18206    0.92742    1.000
    Si265    Si       0.13742    0.13910    0.91866    1.000
    Si266    Si       0.20424    0.12992    0.96057    1.000
    N267     N        0.15097    0.13119    0.87849    1.000
    N268     N        0.20021    0.16165    0.92873    1.000
    N269     N        0.03914    0.20157    0.08264    1.000
    Si270    Si       0.03356    0.23638    0.05663    1.000
    N271     N        0.09498    0.19336    0.03053    1.000
    N272     N        0.04055    0.23919    0.01484    1.000
    Si273    Si       0.06185    0.20124    0.00058    1.000
    N274     N        0.20520    0.19464    0.09406    1.000
    Si275    Si       0.16433    0.19927    0.08220    1.000
    Si276    Si       0.12578    0.22528    0.02799    1.000
    Si277    Si       0.22676    0.23479    0.02861    1.000
    N278     N        0.15195    0.23546    0.06303    1.000
    N279     N        0.21833    0.19087    0.03153    1.000
    N280     N        0.15684    0.21168    0.00059    1.000
    N281     N        0.14033    0.19105    0.11808    1.000
    N282     N        0.07272    0.21353    0.17636    1.000
    N283     N        0.00997    0.20574    0.21696    1.000
    Si284    Si       0.02927    0.21092    0.17848    1.000
    N285     N        0.10612    0.23655    0.23107    1.000
    Si286    Si       0.21157    0.22374    0.12624    1.000
    N287     N        0.17114    0.23319    0.24338    1.000
    Si288    Si       0.15467    0.20271    0.15684    1.000
    N289     N        0.19799    0.20260    0.16187    1.000
    N290     N        0.14262    0.24111    0.17643    1.000
    N291     N        0.06937    0.20276    0.31231    1.000
    N292     N        0.00537    0.19123    0.28292    1.000
    Si293    Si       0.11355    0.19323    0.31590    1.000
    Si294    Si       0.05375    0.24577    0.31233    1.000
    N295     N        0.11815    0.20160    0.36047    1.000
    N296     N        0.13081    0.23193    0.30063    1.000
    Si297    Si       0.13263    0.21862    0.25926    1.000
    Si298    Si       0.18788    0.19842    0.31674    1.000
    N299     N        0.20380    0.23665    0.30460    1.000
    Si300    Si       0.20883    0.24154    0.26154    1.000
    N301     N        0.01132    0.20167    0.44667    1.000
    Si302    Si       0.10926    0.20806    0.48493    1.000
    N303     N        0.07393    0.18958    0.46638    1.000
    Si304    Si       0.23776    0.24096    0.47218    1.000
    Si305    Si       0.20001    0.19566    0.40147    1.000
    N306     N        0.19704    0.22457    0.47519    1.000
    Si307    Si       0.13243    0.23311    0.38603    1.000
    N308     N        0.16563    0.22092    0.41164    1.000
    N309     N        0.23837    0.21904    0.41242    1.000
    N310     N        0.08412    0.21690    0.52262    1.000
    Si311    Si       0.00034    0.21850    0.54034    1.000
    N312     N        0.08093    0.21002    0.61072    1.000
    Si313    Si       0.11735    0.20764    0.58842    1.000
    Si314    Si       0.22439    0.22235    0.55593    1.000
    N315     N        0.20023    0.18806    0.54152    1.000
    N316     N        0.23418    0.22210    0.59838    1.000
    Si317    Si       0.18467    0.18871    0.50077    1.000
    N318     N        0.12333    0.24413    0.56622    1.000
    N319     N        0.15328    0.20565    0.61803    1.000
    N320     N        0.14171    0.18700    0.50250    1.000
    Si321    Si       0.02334    0.22560    0.67713    1.000
    N322     N        0.06416    0.21080    0.67281    1.000
    N323     N        0.99296    0.19595    0.68626    1.000
    N324     N        0.09259    0.24336    0.72717    1.000
    N325     N        0.01694    0.24468    0.63904    1.000
    Si326    Si       0.11791    0.21480    0.74450    1.000
    Si327    Si       0.20706    0.20178    0.62642    1.000
    N328     N        0.19874    0.23908    0.65173    1.000
    N329     N        0.22348    0.22038    0.71277    1.000
    Si330    Si       0.15920    0.24382    0.63715    1.000
    N331     N        0.07132    0.22729    0.84528    1.000
    Si332    Si       0.08222    0.23619    0.80445    1.000
    N333     N        0.11175    0.21160    0.78757    1.000
    Si334    Si       0.05605    0.19319    0.87038    1.000
    N335     N        0.99072    0.24236    0.83312    1.000
    N336     N        0.20541    0.20597    0.78710    1.000
    Si337    Si       0.15831    0.20746    0.79232    1.000
    N338     N        0.15962    0.21341    0.74757    1.000
    Si339    Si       0.20080    0.20068    0.74424    1.000
    Si340    Si       0.16701    0.24209    0.85947    1.000
    N341     N        0.01155    0.19403    0.87535    1.000
    N342     N        0.00485    0.18829    0.95205    1.000
    Si343    Si       0.09827    0.19895    0.94251    1.000
    N344     N        0.08700    0.22889    0.97053    1.000
    N345     N        0.07824    0.20650    0.90378    1.000
    Si346    Si       0.08887    0.24347    0.88441    1.000
    Si347    Si       0.17651    0.23882    0.97353    1.000
    N348     N        0.17376    0.20071    0.87250    1.000
    N349     N        0.19451    0.22983    0.93393    1.000
    Si350    Si       0.17626    0.19439    0.91564    1.000
    Si351    Si       0.08431    0.29000    0.05274    1.000
    N352     N        0.05847    0.26518    0.07808    1.000
    Si353    Si       0.07333    0.28503    0.11470    1.000
    N354     N        0.10755    0.26528    0.02399    1.000
    N355     N        0.00244    0.29770    0.00835    1.000
    Si356    Si       0.17669    0.26778    0.07716    1.000
    N357     N        0.21646    0.25689    0.06386    1.000
    N358     N        0.18360    0.25656    0.11967    1.000
    N359     N        0.06735    0.27842    0.20311    1.000
    Si360    Si       0.03316    0.28992    0.17769    1.000
    N361     N        0.10124    0.27948    0.14809    1.000
    Si362    Si       0.09019    0.27731    0.24082    1.000
    N363     N        0.00964    0.25266    0.17450    1.000
    Si364    Si       0.09900    0.24989    0.18235    1.000
    N365     N        0.13310    0.29350    0.22516    1.000
    Si366    Si       0.22917    0.28598    0.20064    1.000
    Si367    Si       0.16146    0.27573    0.15193    1.000
    Si368    Si       0.15915    0.26023    0.21212    1.000
    N369     N        0.18954    0.28096    0.18523    1.000
    N370     N        0.22263    0.28080    0.24384    1.000
    N371     N        0.07074    0.27338    0.28263    1.000
    N372     N        0.08067    0.26288    0.34291    1.000
    N373     N        0.01278    0.24493    0.32832    1.000
    Si374    Si       0.12225    0.26662    0.32562    1.000
    N375     N        0.14934    0.26679    0.35951    1.000
    Si376    Si       0.23194    0.26134    0.33019    1.000
    Si377    Si       0.00083    0.25658    0.36965    1.000
    Si378    Si       0.09621    0.26453    0.44751    1.000
    N379     N        0.05458    0.26020    0.46334    1.000
    Si380    Si       0.07151    0.27194    0.38400    1.000
    N381     N        0.03394    0.25236    0.39747    1.000
    N382     N        0.09788    0.24808    0.40826    1.000
    Si383    Si       0.02249    0.24361    0.43884    1.000
    Si384    Si       0.17997    0.28435    0.38278    1.000
    N385     N        0.16740    0.28419    0.42559    1.000
    N386     N        0.12763    0.24322    0.46799    1.000
    N387     N        0.23414    0.27523    0.44647    1.000
    N388     N        0.21902    0.27043    0.37227    1.000
    Si389    Si       0.16682    0.24285    0.44805    1.000
    N390     N        0.06269    0.26802    0.58362    1.000
    N391     N        0.01497    0.25856    0.53292    1.000
    N392     N        0.08039    0.28901    0.52636    1.000
    Si393    Si       0.04331    0.27608    0.50220    1.000
    Si394    Si       0.08503    0.25152    0.54996    1.000
    Si395    Si       0.99527    0.29449    0.55185    1.000
    Si396    Si       0.22055    0.28106    0.52932    1.000
    Si397    Si       0.15531    0.27095    0.56912    1.000
    N398     N        0.15930    0.28080    0.61157    1.000
    N399     N        0.19471    0.25743    0.55310    1.000
    N400     N        0.02669    0.25226    0.71176    1.000
    N401     N        0.07275    0.27377    0.65260    1.000
    Si402    Si       0.05650    0.26130    0.74137    1.000
    Si403    Si       0.08950    0.24564    0.68253    1.000
    Si404    Si       0.05662    0.24539    0.62176    1.000
    Si405    Si       0.23058    0.24564    0.67958    1.000
    Si406    Si       0.14367    0.29004    0.68647    1.000
    N407     N        0.13239    0.25150    0.67026    1.000
    N408     N        0.17702    0.29354    0.71628    1.000
    N409     N        0.09709    0.27732    0.80047    1.000
    Si410    Si       0.01156    0.26464    0.80024    1.000
    N411     N        0.02997    0.30462    0.80773    1.000
    N412     N        0.05756    0.30519    0.74847    1.000
    N413     N        0.04489    0.24396    0.78137    1.000
    Si414    Si       0.13787    0.28271    0.81114    1.000
    N415     N        0.19788    0.27138    0.86586    1.000
    N416     N        0.23094    0.29866    0.75808    1.000
    N417     N        0.15753    0.24349    0.81788    1.000
    N418     N        0.06691    0.29490    0.97225    1.000
    Si419    Si       0.03147    0.27246    0.98611    1.000
    N420     N        0.01522    0.27115    0.94571    1.000
    N421     N        0.07541    0.28142    0.90236    1.000
    Si422    Si       0.10193    0.26932    0.98192    1.000
    Si423    Si       0.04828    0.29860    0.93219    1.000
    N424     N        0.13112    0.25729    0.88030    1.000
    N425     N        0.21074    0.25346    0.99352    1.000
    Si426    Si       0.22637    0.29206    0.97722    1.000
    N427     N        0.14381    0.26630    0.96455    1.000
    Si428    Si       0.12183    0.30093    0.88486    1.000
    Si429    Si       0.23423    0.24384    0.92712    1.000
    Si430    Si       0.01649    0.32395    0.04060    1.000
    N431     N        0.06103    0.32062    0.03225    1.000
    N432     N        0.00125    0.30756    0.07790    1.000
    Si433    Si       0.00564    0.32820    0.11668    1.000
    N434     N        0.10295    0.30630    0.08750    1.000
    Si435    Si       0.14060    0.33111    0.08593    1.000
    Si436    Si       0.19376    0.34578    0.05672    1.000
    N437     N        0.16991    0.30812    0.06538    1.000
    N438     N        0.02323    0.32683    0.20040    1.000
    Si439    Si       0.04487    0.33970    0.23298    1.000
    N440     N        0.10893    0.34304    0.18633    1.000
    N441     N        0.04028    0.30439    0.13514    1.000
    Si442    Si       0.11288    0.32260    0.14851    1.000
    N443     N        0.10283    0.36104    0.12665    1.000
    Si444    Si       0.11944    0.33472    0.22847    1.000
    N445     N        0.15392    0.31634    0.13608    1.000
    N446     N        0.22579    0.33407    0.12860    1.000
    Si447    Si       0.18549    0.34903    0.13483    1.000
    N448     N        0.05528    0.33846    0.31780    1.000
    N449     N        0.01270    0.33322    0.26421    1.000
    Si450    Si       0.06848    0.34906    0.35811    1.000
    Si451    Si       0.08237    0.31472    0.29389    1.000
    Si452    Si       0.02100    0.35655    0.29832    1.000
    N453     N        0.08249    0.32556    0.24995    1.000
    N454     N        0.11377    0.35768    0.36203    1.000
    Si455    Si       0.14561    0.33331    0.33950    1.000
    N456     N        0.18946    0.33327    0.27313    1.000
    Si457    Si       0.22570    0.30942    0.27352    1.000
    N458     N        0.12154    0.30842    0.31401    1.000
    N459     N        0.17843    0.32556    0.36813    1.000
    Si460    Si       0.02791    0.34883    0.47577    1.000
    N461     N        0.06486    0.31532    0.38459    1.000
    Si462    Si       0.07296    0.33182    0.42466    1.000
    N463     N        0.03119    0.33495    0.43446    1.000
    N464     N        0.10334    0.30623    0.44046    1.000
    Si465    Si       0.99382    0.32522    0.41562    1.000
    N466     N        0.02014    0.31027    0.49371    1.000
    N467     N        0.15367    0.35583    0.42422    1.000
    Si468    Si       0.14403    0.31685    0.44485    1.000
    N469     N        0.21712    0.34942    0.43754    1.000
    N470     N        0.13995    0.33593    0.48735    1.000
    Si471    Si       0.22688    0.31532    0.46349    1.000
    Si472    Si       0.19328    0.35275    0.40048    1.000
    N473     N        0.02583    0.32231    0.56692    1.000
    N474     N        0.08224    0.32872    0.60598    1.000
    N475     N        0.09515    0.35061    0.54461    1.000
    Si476    Si       0.10827    0.35731    0.58824    1.000
    Si477    Si       0.06721    0.30904    0.56859    1.000
    Si478    Si       0.11048    0.31871    0.51818    1.000
    Si479    Si       0.02186    0.36258    0.58318    1.000
    Si480    Si       0.17332    0.32875    0.52074    1.000
    N481     N        0.20861    0.33326    0.60889    1.000
    N482     N        0.14761    0.35171    0.60071    1.000
    N483     N        0.18610    0.36106    0.54527    1.000
    N484     N        0.14537    0.30431    0.54256    1.000
    N485     N        0.20289    0.30792    0.49931    1.000
    N486     N        0.05731    0.33665    0.68309    1.000
    N487     N        0.01604    0.31753    0.63990    1.000
    Si488    Si       0.05979    0.31727    0.64263    1.000
    Si489    Si       0.07766    0.33167    0.72117    1.000
    Si490    Si       0.01308    0.33342    0.68211    1.000
    Si491    Si       0.14925    0.31979    0.73825    1.000
    N492     N        0.15230    0.36106    0.72332    1.000
    Si493    Si       0.16729    0.32185    0.62324    1.000
    N494     N        0.15603    0.32594    0.66420    1.000
    Si495    Si       0.21817    0.30771    0.71480    1.000
    Si496    Si       0.17354    0.35946    0.68769    1.000
    N497     N        0.21659    0.34697    0.69647    1.000
    N498     N        0.11384    0.30820    0.71461    1.000
    N499     N        0.08963    0.34592    0.80154    1.000
    Si500    Si       0.00930    0.33538    0.82986    1.000
    Si501    Si       0.06895    0.30926    0.79088    1.000
    N502     N        0.98562    0.31174    0.85994    1.000
    Si503    Si       0.11674    0.34786    0.83673    1.000
    N504     N        0.14338    0.31207    0.84346    1.000
    Si505    Si       0.18530    0.31261    0.85460    1.000
    Si506    Si       0.20275    0.32082    0.78185    1.000
    N507     N        0.21248    0.32002    0.82229    1.000
    N508     N        0.15868    0.30915    0.77788    1.000
    N509     N        0.20719    0.36065    0.76923    1.000
    N510     N        0.09456    0.33727    0.87334    1.000
    N511     N        0.03578    0.33862    0.91823    1.000
    Si512    Si       0.99464    0.33380    0.89753    1.000
    Si513    Si       0.06043    0.36001    0.88661    1.000
    Si514    Si       0.07979    0.33125    0.99272    1.000
    Si515    Si       0.19834    0.35624    0.98070    1.000
    N516     N        0.18585    0.35211    0.87658    1.000
    Si517    Si       0.16223    0.35831    0.91233    1.000
    N518     N        0.12084    0.32399    0.98722    1.000
    N519     N        0.14262    0.32019    0.91890    1.000
    N520     N        0.19059    0.31536    0.97567    1.000
    Si521    Si       0.15112    0.30755    0.95931    1.000
    N522     N        0.06105    0.39913    0.08143    1.000
    Si523    Si       0.10127    0.38665    0.09112    1.000
    N524     N        0.00828    0.36980    0.10848    1.000
    Si525    Si       0.03864    0.39941    0.11890    1.000
    Si526    Si       0.99793    0.39198    0.07271    1.000
    N527     N        0.99883    0.36262    0.03937    1.000
    Si528    Si       0.16520    0.40796    0.08883    1.000
    Si529    Si       0.14483    0.38504    0.02592    1.000
    N530     N        0.17547    0.36483    0.09550    1.000
    N531     N        0.18307    0.36498    0.01906    1.000
    N532     N        0.12196    0.36601    0.05810    1.000
    N533     N        0.12712    0.41788    0.10582    1.000
    N534     N        0.99168    0.38762    0.18859    1.000
    Si535    Si       0.09509    0.38078    0.16582    1.000
    N536     N        0.04756    0.38499    0.22913    1.000
    N537     N        0.10669    0.41411    0.19224    1.000
    N538     N        0.05505    0.39169    0.15713    1.000
    Si539    Si       0.03329    0.40186    0.19255    1.000
    Si540    Si       0.12520    0.41129    0.23241    1.000
    N541     N        0.13893    0.37032    0.24330    1.000
    N542     N        0.18256    0.38302    0.16027    1.000
    N543     N        0.02914    0.39909    0.29049    1.000
    Si544    Si       0.99989    0.38221    0.36392    1.000
    N545     N        0.04342    0.38624    0.36396    1.000
    Si546    Si       0.05252    0.41887    0.25885    1.000
    N547     N        0.19617    0.40422    0.27293    1.000
    Si548    Si       0.13040    0.39522    0.34114    1.000
    Si549    Si       0.17040    0.37037    0.27505    1.000
    N550     N        0.15465    0.36985    0.31623    1.000
    Si551    Si       0.23993    0.40087    0.27290    1.000
    Si552    Si       0.08275    0.39724    0.45930    1.000
    N553     N        0.08616    0.37194    0.42282    1.000
    N554     N        0.06616    0.36707    0.48676    1.000
    N555     N        0.99707    0.37587    0.48815    1.000
    Si556    Si       0.12238    0.37906    0.40042    1.000
    Si557    Si       0.14936    0.37266    0.46575    1.000
    N558     N        0.19207    0.41831    0.42823    1.000
    N559     N        0.18577    0.38920    0.48462    1.000
    N560     N        0.12534    0.40891    0.45579    1.000
    N561     N        0.14415    0.41202    0.38117    1.000
    Si562    Si       0.18661    0.41715    0.38593    1.000
    Si563    Si       0.21670    0.39258    0.45460    1.000
    N564     N        0.21093    0.38463    0.37703    1.000
    Si565    Si       0.06998    0.38053    0.52781    1.000
    N566     N        0.09692    0.40006    0.59001    1.000
    N567     N        0.03188    0.38513    0.54907    1.000
    Si568    Si       0.00478    0.40298    0.52089    1.000
    N569     N        0.03750    0.38189    0.61939    1.000
    N570     N        0.08521    0.42128    0.52227    1.000
    N571     N        0.19238    0.40566    0.60201    1.000
    Si572    Si       0.18671    0.36608    0.58725    1.000
    Si573    Si       0.07208    0.40712    0.62607    1.000
    Si574    Si       0.08029    0.40007    0.70285    1.000
    Si575    Si       0.99668    0.38695    0.63318    1.000
    N576     N        0.09560    0.39694    0.65979    1.000
    Si577    Si       0.00151    0.39833    0.70979    1.000
    N578     N        0.99679    0.37376    0.67559    1.000
    N579     N        0.08159    0.37285    0.73664    1.000
    N580     N        0.04091    0.41982    0.70422    1.000
    N581     N        0.16778    0.39623    0.66635    1.000
    Si582    Si       0.13148    0.41965    0.66674    1.000
    Si583    Si       0.14812    0.40052    0.74004    1.000
    Si584    Si       0.20092    0.41153    0.64443    1.000
    Si585    Si       0.09370    0.38232    0.77950    1.000
    Si586    Si       0.05428    0.40479    0.84323    1.000
    N587     N        0.07794    0.41448    0.80832    1.000
    Si588    Si       0.99208    0.39134    0.85050    1.000
    N589     N        0.03531    0.36485    0.85041    1.000
    Si590    Si       0.20816    0.38559    0.85803    1.000
    Si591    Si       0.20608    0.40185    0.77777    1.000
    N592     N        0.12989    0.38805    0.84654    1.000
    N593     N        0.13575    0.39191    0.77952    1.000
    N594     N        0.19287    0.39997    0.81943    1.000
    Si595    Si       0.15057    0.40883    0.81643    1.000
    N596     N        0.07480    0.40206    0.88469    1.000
    Si597    Si       0.02998    0.37376    0.95006    1.000
    Si598    Si       0.08718    0.40189    0.98500    1.000
    N599     N        0.03038    0.41559    0.93310    1.000
    N600     N        0.99245    0.37294    0.97142    1.000
    N601     N        0.06467    0.36835    0.97525    1.000
    N602     N        0.13141    0.38763    0.91887    1.000
    N603     N        0.18724    0.37383    0.94283    1.000
    N604     N        0.20031    0.41653    0.88799    1.000
    Si605    Si       0.20441    0.41198    0.93170    1.000
    N606     N        0.12965    0.39446    0.98839    1.000
    Si607    Si       0.13751    0.41636    0.95129    1.000
    Si608    Si       0.11774    0.40665    0.88277    1.000
    N609     N        0.05666    0.46582    0.06984    1.000
    Si610    Si       0.05132    0.47008    0.11248    1.000
    N611     N        0.07855    0.43097    0.01722    1.000
    Si612    Si       0.05123    0.42843    0.05098    1.000
    N613     N        0.01998    0.43939    0.11752    1.000
    N614     N        0.00869    0.42401    0.03417    1.000
    Si615    Si       0.15006    0.46256    0.03792    1.000
    N616     N        0.19020    0.43455    0.11106    1.000
    Si617    Si       0.18659    0.47740    0.10071    1.000
    N618     N        0.15742    0.42086    0.04831    1.000
    N619     N        0.21281    0.45824    0.99899    1.000
    N620     N        0.04552    0.44226    0.19917    1.000
    Si621    Si       0.08533    0.45231    0.18300    1.000
    N622     N        0.08430    0.45936    0.14023    1.000
    Si623    Si       0.02754    0.47403    0.22388    1.000
    Si624    Si       0.15175    0.47358    0.20326    1.000
    Si625    Si       0.18886    0.42335    0.15494    1.000
    N626     N        0.22048    0.44080    0.17819    1.000
    N627     N        0.15447    0.45018    0.16422    1.000
    N628     N        0.15681    0.44298    0.23277    1.000
    Si629    Si       0.12716    0.45288    0.13019    1.000
    N630     N        0.03693    0.45139    0.32921    1.000
    N631     N        0.04056    0.46093    0.26282    1.000
    Si632    Si       0.00432    0.42730    0.31181    1.000
    Si633    Si       0.06160    0.42627    0.35515    1.000
    Si634    Si       0.11233    0.44581    0.29935    1.000
    N635     N        0.09795    0.42690    0.26266    1.000
    Si636    Si       0.05269    0.47971    0.30044    1.000
    N637     N        0.09711    0.41992    0.33088    1.000
    N638     N        0.20999    0.47262    0.27982    1.000
    Si639    Si       0.17123    0.47379    0.33889    1.000
    Si640    Si       0.17879    0.44514    0.27041    1.000
    N641     N        0.15498    0.44850    0.30783    1.000
    N642     N        0.20182    0.45328    0.36415    1.000
    N643     N        0.05934    0.43480    0.45930    1.000
    N644     N        0.01987    0.45915    0.40544    1.000
    Si645    Si       0.05849    0.45853    0.42304    1.000
    N646     N        0.08398    0.44516    0.39058    1.000
    N647     N        0.14479    0.46965    0.42336    1.000
    Si648    Si       0.12538    0.45112    0.38836    1.000
    Si649    Si       0.15859    0.43928    0.45001    1.000
    N650     N        0.17066    0.45437    0.48923    1.000
    N651     N        0.01568    0.44353    0.51330    1.000
    N652     N        0.09762    0.46938    0.57417    1.000
    Si653    Si       0.10883    0.43040    0.55957    1.000
    Si654    Si       0.09656    0.47552    0.61744    1.000
    Si655    Si       0.05632    0.44767    0.50078    1.000
    Si656    Si       0.18016    0.41982    0.51436    1.000
    Si657    Si       0.18811    0.43778    0.57361    1.000
    N658     N        0.21464    0.43141    0.53959    1.000
    N659     N        0.18196    0.47481    0.59352    1.000
    N660     N        0.15149    0.42829    0.54822    1.000
    N661     N        0.06198    0.44927    0.62568    1.000
    Si662    Si       0.01763    0.45867    0.62840    1.000
    Si663    Si       0.03940    0.46271    0.70221    1.000
    N664     N        0.01538    0.47543    0.66852    1.000
    Si665    Si       0.11231    0.46484    0.72405    1.000
    N666     N        0.01731    0.48086    0.73529    1.000
    N667     N        0.22795    0.47404    0.71580    1.000
    Si668    Si       0.23779    0.47470    0.67167    1.000
    Si669    Si       0.18806    0.46507    0.73085    1.000
    Si670    Si       0.16836    0.47287    0.63535    1.000
    N671     N        0.13040    0.45150    0.63712    1.000
    N672     N        0.20384    0.45559    0.65307    1.000
    N673     N        0.11919    0.42180    0.71133    1.000
    Si674    Si       0.00598    0.45569    0.81772    1.000
    Si675    Si       0.09974    0.45398    0.80405    1.000
    N676     N        0.09899    0.46592    0.76512    1.000
    N677     N        0.00635    0.42865    0.78474    1.000
    N678     N        0.01770    0.42592    0.84763    1.000
    N679     N        0.14397    0.45169    0.81093    1.000
    N680     N        0.21558    0.46740    0.82617    1.000
    N681     N        0.18329    0.42358    0.74497    1.000
    Si682    Si       0.17717    0.47857    0.80920    1.000
    Si683    Si       0.99809    0.44268    0.93678    1.000
    N684     N        0.07142    0.46857    0.90088    1.000
    N685     N        0.09673    0.43406    0.95355    1.000
    Si686    Si       0.06758    0.43029    0.91993    1.000
    Si687    Si       0.09996    0.46055    0.99026    1.000
    Si688    Si       0.10479    0.47962    0.87453    1.000
    Si689    Si       0.17444    0.45267    0.89442    1.000
    Si690    Si       0.17997    0.46999    0.97227    1.000
    N691     N        0.17378    0.44137    0.93974    1.000
    N692     N        0.13218    0.44825    0.88342    1.000
    N693     N        0.14187    0.46217    0.99398    1.000
    Si694    Si       0.07501    0.49585    0.03996    1.000
    Si695    Si       0.01050    0.52760    0.02381    1.000
    N696     N        0.04667    0.52973    0.04881    1.000
    N697     N        0.03438    0.51006    0.11641    1.000
    N698     N        0.99786    0.49267    0.00165    1.000
    N699     N        0.09488    0.53998    0.10303    1.000
    N700     N        0.07581    0.49643    0.99588    1.000
    N701     N        0.11702    0.49133    0.04842    1.000
    N702     N        0.22555    0.52734    0.00801    1.000
    Si703    Si       0.12694    0.51727    0.08098    1.000
    Si704    Si       0.22105    0.48938    0.03286    1.000
    N705     N        0.14373    0.48627    0.10763    1.000
    N706     N        0.18626    0.48132    0.05784    1.000
    Si707    Si       0.23691    0.52950    0.11541    1.000
    N708     N        0.10646    0.48584    0.20306    1.000
    N709     N        0.04255    0.50749    0.20153    1.000
    Si710    Si       0.00286    0.53000    0.20355    1.000
    Si711    Si       0.08230    0.52291    0.21064    1.000
    Si712    Si       0.99188    0.51344    0.12515    1.000
    Si713    Si       0.21924    0.48528    0.17414    1.000
    N714     N        0.21219    0.49788    0.13079    1.000
    N715     N        0.18513    0.49833    0.20159    1.000
    N716     N        0.03369    0.51767    0.30775    1.000
    N717     N        0.08202    0.52994    0.25360    1.000
    N718     N        0.09652    0.48650    0.30383    1.000
    Si719    Si       0.11070    0.51153    0.33794    1.000
    N720     N        0.07692    0.52852    0.35907    1.000
    Si721    Si       0.99673    0.52016    0.32955    1.000
    Si722    Si       0.11397    0.51485    0.27471    1.000
    N723     N        0.01110    0.53462    0.24909    1.000
    N724     N        0.13480    0.48438    0.36006    1.000
    N725     N        0.15279    0.50720    0.26126    1.000
    N726     N        0.18849    0.51366    0.32584    1.000
    Si727    Si       0.19139    0.51232    0.28116    1.000
    N728     N        0.21032    0.54056    0.25389    1.000
    Si729    Si       0.08110    0.53338    0.40302    1.000
    Si730    Si       0.06637    0.51626    0.47260    1.000
    N731     N        0.07317    0.50091    0.43227    1.000
    N732     N        0.02596    0.53423    0.46422    1.000
    Si733    Si       0.99454    0.52847    0.49332    1.000
    Si734    Si       0.18003    0.49685    0.49004    1.000
    N735     N        0.18980    0.51940    0.40377    1.000
    N736     N        0.12385    0.53855    0.40677    1.000
    N737     N        0.15034    0.52057    0.47099    1.000
    N738     N        0.21633    0.50081    0.46938    1.000
    Si739    Si       0.15287    0.51353    0.42684    1.000
    Si740    Si       0.22570    0.51367    0.42904    1.000
    Si741    Si       0.08759    0.50063    0.54471    1.000
    Si742    Si       0.01715    0.51589    0.57019    1.000
    N743     N        0.00466    0.50812    0.52969    1.000
    N744     N        0.05865    0.52606    0.56655    1.000
    N745     N        0.07333    0.48820    0.50551    1.000
    N746     N        0.00933    0.48787    0.59930    1.000
    N747     N        0.10309    0.51834    0.61853    1.000
    N748     N        0.11952    0.52987    0.53798    1.000
    N749     N        0.19316    0.50961    0.52936    1.000
    Si750    Si       0.19010    0.51131    0.57288    1.000
    N751     N        0.22342    0.53399    0.59128    1.000
    Si752    Si       0.07324    0.52718    0.71323    1.000
    Si753    Si       0.00069    0.51456    0.67799    1.000
    N754     N        0.03906    0.53825    0.68836    1.000
    N755     N        0.07939    0.48183    0.70297    1.000
    Si756    Si       0.23226    0.53675    0.70535    1.000
    N757     N        0.18873    0.53380    0.71506    1.000
    N758     N        0.15962    0.51127    0.65136    1.000
    Si759    Si       0.15451    0.51868    0.69308    1.000
    N760     N        0.23866    0.51928    0.66465    1.000
    N761     N        0.15173    0.47993    0.71171    1.000
    Si762    Si       0.05484    0.51561    0.83181    1.000
    Si763    Si       0.02378    0.50851    0.76620    1.000
    N764     N        0.02670    0.49133    0.80630    1.000
    N765     N        0.05804    0.53260    0.75292    1.000
    N766     N        0.08786    0.48402    0.83393    1.000
    N767     N        0.16811    0.51524    0.82993    1.000
    Si768    Si       0.22688    0.49545    0.85677    1.000
    N769     N        0.18493    0.48854    0.76776    1.000
    Si770    Si       0.18403    0.53023    0.75894    1.000
    Si771    Si       0.14811    0.53631    0.86043    1.000
    N772     N        0.03387    0.52085    0.87305    1.000
    Si773    Si       0.04426    0.49981    0.91091    1.000
    N774     N        0.06732    0.53122    0.93463    1.000
    Si775    Si       0.99484    0.51611    0.96109    1.000
    Si776    Si       0.06421    0.53371    0.97778    1.000
    N777     N        0.01063    0.48537    0.93430    1.000
    N778     N        0.19702    0.48770    0.88863    1.000
    N779     N        0.11839    0.51997    0.88833    1.000
    Si780    Si       0.19776    0.52398    0.91377    1.000
    N781     N        0.18473    0.50891    0.95375    1.000
    N782     N        0.03750    0.57847    0.10136    1.000
    N783     N        0.99324    0.59735    0.05269    1.000
    Si784    Si       0.05299    0.53963    0.09137    1.000
    N785     N        0.15734    0.55304    0.00534    1.000
    Si786    Si       0.12643    0.57085    0.11122    1.000
    N787     N        0.15149    0.55517    0.07824    1.000
    N788     N        0.20818    0.58462    0.04019    1.000
    Si789    Si       0.16464    0.57493    0.04416    1.000
    N790     N        0.22166    0.56894    0.12382    1.000
    N791     N        0.08908    0.56138    0.19140    1.000
    N792     N        0.01485    0.56880    0.18533    1.000
    Si793    Si       0.05398    0.58772    0.19235    1.000
    Si794    Si       0.18860    0.57189    0.15385    1.000
    Si795    Si       0.12770    0.57991    0.18840    1.000
    N796     N        0.21494    0.55300    0.18520    1.000
    N797     N        0.16082    0.57588    0.21641    1.000
    N798     N        0.14699    0.56228    0.14976    1.000
    Si799    Si       0.18700    0.53946    0.21611    1.000
    N800     N        0.05260    0.57777    0.29589    1.000
    Si801    Si       0.05095    0.55649    0.33784    1.000
    N802     N        0.01329    0.54997    0.35885    1.000
    Si803    Si       0.04518    0.54190    0.27325    1.000
    N804     N        0.12038    0.54390    0.31002    1.000
    Si805    Si       0.14655    0.57879    0.31856    1.000
    N806     N        0.16495    0.56844    0.35628    1.000
    N807     N        0.17484    0.58964    0.28949    1.000
    N808     N        0.23367    0.55707    0.36074    1.000
    Si809    Si       0.19528    0.53860    0.36259    1.000
    Si810    Si       0.02874    0.57022    0.44291    1.000
    N811     N        0.08873    0.55163    0.48514    1.000
    N812     N        0.06310    0.56803    0.41599    1.000
    N813     N        0.99870    0.58869    0.41814    1.000
    Si814    Si       0.08010    0.59529    0.48470    1.000
    N815     N        0.24410    0.55184    0.43079    1.000
    N816     N        0.17260    0.58192    0.42263    1.000
    Si817    Si       0.14338    0.57412    0.39395    1.000
    N818     N        0.21100    0.59563    0.47342    1.000
    Si819    Si       0.12897    0.54615    0.49751    1.000
    Si820    Si       0.07780    0.55043    0.59771    1.000
    N821     N        0.10465    0.57989    0.58330    1.000
    Si822    Si       0.01532    0.58911    0.59201    1.000
    N823     N        0.99448    0.55531    0.57285    1.000
    N824     N        0.04503    0.56967    0.62000    1.000
    N825     N        0.15466    0.57549    0.51775    1.000
    Si826    Si       0.20147    0.57117    0.58703    1.000
    Si827    Si       0.13713    0.56594    0.55564    1.000
    N828     N        0.16353    0.54797    0.58740    1.000
    N829     N        0.21574    0.58955    0.55021    1.000
    N830     N        0.20663    0.59864    0.62024    1.000
    Si831    Si       0.02656    0.56900    0.65919    1.000
    N832     N        0.11547    0.54086    0.70329    1.000
    N833     N        0.23545    0.57932    0.71186    1.000
    Si834    Si       0.12111    0.58486    0.68669    1.000
    N835     N        0.14564    0.57629    0.65154    1.000
    Si836    Si       0.14045    0.54023    0.62505    1.000
    Si837    Si       0.05579    0.56843    0.77987    1.000
    N838     N        0.06202    0.55695    0.82031    1.000
    Si839    Si       0.08540    0.58484    0.84594    1.000
    N840     N        0.02205    0.59575    0.76715    1.000
    N841     N        0.08850    0.59499    0.76908    1.000
    N842     N        0.15306    0.55640    0.77399    1.000
    N843     N        0.12655    0.56947    0.84179    1.000
    Si844    Si       0.15815    0.57929    0.81254    1.000
    N845     N        0.22068    0.54858    0.77498    1.000
    Si846    Si       0.13094    0.59040    0.75890    1.000
    Si847    Si       0.22481    0.58743    0.75545    1.000
    Si848    Si       0.19349    0.59258    0.87244    1.000
    N849     N        0.18870    0.60364    0.83089    1.000
    N850     N        0.02068    0.59456    0.87094    1.000
    Si851    Si       0.01208    0.55550    0.88611    1.000
    N852     N        0.08199    0.58477    0.88873    1.000
    Si853    Si       0.09985    0.55347    0.91305    1.000
    Si854    Si       0.00539    0.57948    0.95755    1.000
    N855     N        0.02182    0.54635    0.98320    1.000
    N856     N        0.99833    0.54923    0.92566    1.000
    N857     N        0.08887    0.56750    0.99142    1.000
    Si858    Si       0.12930    0.57475    0.98098    1.000
    N859     N        0.18218    0.55322    0.88467    1.000
    N860     N        0.13138    0.56455    0.93847    1.000
    Si861    Si       0.19487    0.54127    0.98082    1.000
    N862     N        0.20489    0.56869    0.94743    1.000
    Si863    Si       0.16901    0.59168    0.93696    1.000
    N864     N        0.23792    0.59505    0.88063    1.000
    N865     N        0.07136    0.61015    0.04713    1.000
    N866     N        0.03054    0.64046    0.09502    1.000
    Si867    Si       0.03265    0.60733    0.06732    1.000
    Si868    Si       0.06649    0.60435    0.00435    1.000
    Si869    Si       0.10811    0.62548    0.06584    1.000
    N870     N        0.02470    0.61888    0.99745    1.000
    N871     N        0.11133    0.61054    0.10605    1.000
    N872     N        0.19759    0.65148    0.02090    1.000
    N873     N        0.14230    0.61364    0.03870    1.000
    Si874    Si       0.21833    0.62520    0.04891    1.000
    N875     N        0.20619    0.63625    0.09069    1.000
    Si876    Si       0.16125    0.63579    0.00642    1.000
    Si877    Si       0.22203    0.61158    0.12259    1.000
    Si878    Si       0.02364    0.61110    0.12942    1.000
    N879     N        0.04592    0.61129    0.22889    1.000
    N880     N        0.05557    0.61371    0.15648    1.000
    Si881    Si       0.00760    0.63592    0.23061    1.000
    Si882    Si       0.09341    0.62856    0.14276    1.000
    N883     N        0.19000    0.61545    0.15294    1.000
    N884     N        0.12313    0.62175    0.17316    1.000
    Si885    Si       0.15874    0.64335    0.15768    1.000
    N886     N        0.00627    0.62748    0.27348    1.000
    Si887    Si       0.04988    0.61353    0.27165    1.000
    N888     N        0.07879    0.64134    0.28753    1.000
    Si889    Si       0.07835    0.62660    0.32757    1.000
    N890     N        0.05810    0.59970    0.35504    1.000
    N891     N        0.20921    0.62574    0.25352    1.000
    Si892    Si       0.12281    0.64561    0.28719    1.000
    N893     N        0.12494    0.61780    0.32291    1.000
    N894     N        0.21140    0.63652    0.32311    1.000
    Si895    Si       0.21519    0.60624    0.29344    1.000
    Si896    Si       0.12845    0.63879    0.36132    1.000
    N897     N        0.13936    0.63398    0.24844    1.000
    Si898    Si       0.17173    0.60397    0.24839    1.000
    Si899    Si       0.07298    0.60506    0.39428    1.000
    N900     N        0.05589    0.64201    0.40874    1.000
    Si901    Si       0.03390    0.63871    0.44503    1.000
    N902     N        0.03643    0.60238    0.47157    1.000
    N903     N        0.10953    0.61499    0.45916    1.000
    N904     N        0.23097    0.61965    0.41197    1.000
    Si905    Si       0.12633    0.65130    0.44841    1.000
    N906     N        0.11606    0.60641    0.39045    1.000
    N907     N        0.17282    0.65043    0.44000    1.000
    Si908    Si       0.19728    0.61254    0.43607    1.000
    Si909    Si       0.06170    0.63909    0.55623    1.000
    N910     N        0.07840    0.62466    0.51860    1.000
    N911     N        0.08258    0.64608    0.59444    1.000
    Si912    Si       0.01523    0.60584    0.51253    1.000
    N913     N        0.02835    0.61139    0.55547    1.000
    N914     N        0.98955    0.64127    0.50766    1.000
    Si915    Si       0.11846    0.62176    0.59538    1.000
    N916     N        0.14881    0.62477    0.56425    1.000
    N917     N        0.18730    0.64197    0.51022    1.000
    Si918    Si       0.23953    0.63072    0.55516    1.000
    Si919    Si       0.19091    0.59694    0.51158    1.000
    Si920    Si       0.05074    0.63211    0.68305    1.000
    N921     N        0.01614    0.60612    0.67618    1.000
    N922     N        0.04942    0.64697    0.72356    1.000
    N923     N        0.08401    0.60440    0.67828    1.000
    Si924    Si       0.17346    0.60960    0.64510    1.000
    N925     N        0.13770    0.60620    0.72013    1.000
    Si926    Si       0.23142    0.61757    0.69424    1.000
    Si927    Si       0.17327    0.63361    0.72221    1.000
    N928     N        0.18876    0.62175    0.68298    1.000
    N929     N        0.14413    0.63586    0.62606    1.000
    N930     N        0.23248    0.65009    0.72232    1.000
    N931     N        0.07882    0.62641    0.83302    1.000
    Si932    Si       0.09875    0.63106    0.79431    1.000
    Si933    Si       0.02348    0.63703    0.75664    1.000
    N934     N        0.01446    0.65240    0.83694    1.000
    Si935    Si       0.99221    0.61489    0.84633    1.000
    N936     N        0.14035    0.61702    0.79397    1.000
    Si937    Si       0.18427    0.63439    0.79785    1.000
    N938     N        0.19165    0.61408    0.75783    1.000
    Si939    Si       0.24354    0.65381    0.76205    1.000
    N940     N        0.02709    0.61034    0.93467    1.000
    N941     N        0.08007    0.63452    0.97641    1.000
    Si942    Si       0.04971    0.61485    0.89878    1.000
    Si943    Si       0.03807    0.63899    0.96370    1.000
    N944     N        0.05482    0.65594    0.89218    1.000
    N945     N        0.17754    0.61886    0.90338    1.000
    N946     N        0.15806    0.61056    0.97285    1.000
    Si947    Si       0.08315    0.69310    0.10108    1.000
    Si948    Si       0.01315    0.67841    0.10535    1.000
    N949     N        0.01359    0.69615    0.02410    1.000
    N950     N        0.04330    0.70921    0.09938    1.000
    N951     N        0.09975    0.66953    0.06762    1.000
    N952     N        0.08048    0.69754    0.00529    1.000
    Si953    Si       0.11349    0.69368    0.03184    1.000
    Si954    Si       0.21228    0.69131    0.02841    1.000
    Si955    Si       0.19737    0.67791    0.10480    1.000
    N956     N        0.20123    0.70204    0.06915    1.000
    N957     N        0.13838    0.67373    0.00011    1.000
    Si958    Si       0.09413    0.69996    0.17409    1.000
    N959     N        0.09803    0.67778    0.21330    1.000
    N960     N        0.08701    0.67274    0.14082    1.000
    N961     N        0.01934    0.67471    0.21478    1.000
    Si962    Si       0.05735    0.69422    0.22542    1.000
    N963     N        0.00133    0.67940    0.14705    1.000
    Si964    Si       0.01442    0.70127    0.18088    1.000
    Si965    Si       0.21087    0.68219    0.18576    1.000
    N966     N        0.15092    0.70631    0.24244    1.000
    N967     N        0.17302    0.66200    0.19551    1.000
    N968     N        0.22285    0.68406    0.14239    1.000
    N969     N        0.15842    0.67419    0.12648    1.000
    Si970    Si       0.13964    0.66888    0.22210    1.000
    N971     N        0.09012    0.65851    0.35326    1.000
    N972     N        0.99394    0.71013    0.30222    1.000
    N973     N        0.14784    0.67893    0.30459    1.000
    Si974    Si       0.18290    0.66948    0.32931    1.000
    N975     N        0.21657    0.69786    0.32215    1.000
    N976     N        0.16566    0.65900    0.36580    1.000
    N977     N        0.23649    0.70454    0.26082    1.000
    Si978    Si       0.23447    0.66060    0.25089    1.000
    Si979    Si       0.00165    0.67473    0.48072    1.000
    N980     N        0.04584    0.67000    0.47405    1.000
    Si981    Si       0.07767    0.67517    0.39292    1.000
    N982     N        0.99107    0.69320    0.37696    1.000
    N983     N        0.99302    0.65778    0.44029    1.000
    N984     N        0.05747    0.71521    0.39603    1.000
    N985     N        0.17892    0.70341    0.48296    1.000
    Si986    Si       0.16187    0.67670    0.40536    1.000
    Si987    Si       0.19976    0.66447    0.47499    1.000
    N988     N        0.11748    0.67399    0.41099    1.000
    N989     N        0.11567    0.67502    0.48491    1.000
    N990     N        0.06087    0.68203    0.53832    1.000
    Si991    Si       0.07869    0.66688    0.50247    1.000
    N992     N        0.05446    0.71011    0.60149    1.000
    Si993    Si       0.23589    0.70594    0.56104    1.000
    N994     N        0.15367    0.69371    0.54307    1.000
    N995     N        0.21604    0.66716    0.56472    1.000
    N996     N        0.16340    0.70257    0.61088    1.000
    Si997    Si       0.14156    0.70724    0.50250    1.000
    Si998    Si       0.17475    0.65603    0.54990    1.000
    Si999    Si       0.06857    0.67531    0.62352    1.000
    N1000    N        0.04040    0.66513    0.65557    1.000
    Si1001   Si       0.00686    0.69262    0.67016    1.000
    N1002    N        0.10173    0.68279    0.65223    1.000
    N1003    N        0.99998    0.70548    0.71065    1.000
    N1004    N        0.16162    0.67450    0.73444    1.000
    Si1005   Si       0.14367    0.67663    0.64161    1.000
    N1006    N        0.17108    0.69321    0.67033    1.000
    Si1007   Si       0.15914    0.70980    0.70929    1.000
    Si1008   Si       0.00924    0.68508    0.80925    1.000
    N1009    N        0.09005    0.69687    0.84119    1.000
    N1010    N        0.10326    0.66549    0.76814    1.000
    N1011    N        0.04032    0.66871    0.78040    1.000
    Si1012   Si       0.05694    0.66404    0.84925    1.000
    Si1013   Si       0.06821    0.67647    0.74841    1.000
    N1014    N        0.02912    0.71370    0.83998    1.000
    Si1015   Si       0.14097    0.68623    0.77054    1.000
    N1016    N        0.15938    0.67649    0.80866    1.000
    Si1017   Si       0.20075    0.69849    0.80718    1.000
    Si1018   Si       0.13311    0.69644    0.83880    1.000
    N1019    N        0.21859    0.66127    0.79589    1.000
    Si1020   Si       0.10174    0.67209    0.97487    1.000
    Si1021   Si       0.05378    0.69198    0.92046    1.000
    N1022    N        0.02707    0.68118    0.95581    1.000
    N1023    N        0.09440    0.69226    0.93699    1.000
    Si1024   Si       0.04052    0.70542    0.99130    1.000
    Si1025   Si       0.22240    0.71395    0.87709    1.000
    Si1026   Si       0.16403    0.70450    0.97607    1.000
    N1027    N        0.14332    0.67903    0.87942    1.000
    Si1028   Si       0.13115    0.70271    0.91505    1.000
    Si1029   Si       0.17560    0.66235    0.90278    1.000
    N1030    N        0.16270    0.68389    0.93786    1.000
    N1031    N        0.21486    0.67206    0.89058    1.000
    Si1032   Si       0.03509    0.75046    0.10226    1.000
    Si1033   Si       0.10508    0.76490    0.08083    1.000
    N1034    N        0.05950    0.76813    0.07180    1.000
    N1035    N        0.10916    0.72943    0.10678    1.000
    N1036    N        0.99166    0.75326    0.10156    1.000
    Si1037   Si       0.17204    0.73659    0.06963    1.000
    N1038    N        0.13682    0.72974    0.04520    1.000
    N1039    N        0.17598    0.73943    0.11263    1.000
    Si1040   Si       0.14629    0.76515    0.01887    1.000
    N1041    N        0.19858    0.71928    0.99821    1.000
    N1042    N        0.23768    0.77372    0.09564    1.000
    Si1043   Si       0.05273    0.76172    0.18037    1.000
    N1044    N        0.05555    0.71866    0.18505    1.000
    N1045    N        0.99329    0.73895    0.17816    1.000
    Si1046   Si       0.99339    0.76335    0.21276    1.000
    N1047    N        0.04607    0.77155    0.13901    1.000
    Si1048   Si       0.20663    0.76723    0.12587    1.000
    N1049    N        0.13356    0.72082    0.17373    1.000
    Si1050   Si       0.16055    0.73044    0.20669    1.000
    Si1051   Si       0.23396    0.74999    0.19780    1.000
    N1052    N        0.20145    0.72328    0.19527    1.000
    Si1053   Si       0.14430    0.71597    0.13141    1.000
    Si1054   Si       0.01951    0.73532    0.27884    1.000
    Si1055   Si       0.07898    0.76061    0.27501    1.000
    N1056    N        0.01084    0.75707    0.35977    1.000
    N1057    N        0.04369    0.76676    0.30050    1.000
    N1058    N        0.05605    0.72553    0.25692    1.000
    N1059    N        0.08433    0.77119    0.36286    1.000
    N1060    N        0.98792    0.74019    0.24851    1.000
    N1061    N        0.11557    0.74546    0.29108    1.000
    Si1062   Si       0.22006    0.72963    0.29269    1.000
    N1063    N        0.18055    0.74520    0.29126    1.000
    Si1064   Si       0.14783    0.71828    0.28392    1.000
    N1065    N        0.00009    0.73935    0.43254    1.000
    Si1066   Si       0.01458    0.72609    0.39320    1.000
    Si1067   Si       0.07662    0.75151    0.40484    1.000
    N1068    N        0.10989    0.74589    0.43076    1.000
    N1069    N        0.02694    0.77264    0.48911    1.000
    N1070    N        0.22454    0.76265    0.39566    1.000
    Si1071   Si       0.21860    0.72282    0.41464    1.000
    N1072    N        0.17633    0.71606    0.41257    1.000
    Si1073   Si       0.21400    0.72915    0.49302    1.000
    Si1074   Si       0.11743    0.76864    0.46852    1.000
    Si1075   Si       0.15174    0.75120    0.42031    1.000
    N1076    N        0.23375    0.73632    0.45500    1.000
    N1077    N        0.15787    0.77603    0.45762    1.000
    N1078    N        0.06672    0.75627    0.54693    1.000
    N1079    N        0.00518    0.72970    0.55745    1.000
    Si1080   Si       0.00412    0.76770    0.58006    1.000
    Si1081   Si       0.11000    0.76005    0.54124    1.000
    N1082    N        0.03115    0.77199    0.61353    1.000
    Si1083   Si       0.04771    0.71834    0.55747    1.000
    N1084    N        0.11831    0.74326    0.50384    1.000
    N1085    N        0.13802    0.75494    0.57394    1.000
    N1086    N        0.20897    0.74127    0.57346    1.000
    Si1087   Si       0.16640    0.72280    0.57165    1.000
    N1088    N        0.20234    0.76623    0.50957    1.000
    Si1089   Si       0.13599    0.76223    0.61807    1.000
    N1090    N        0.02529    0.76745    0.73755    1.000
    Si1091   Si       0.05815    0.74268    0.62897    1.000
    N1092    N        0.10132    0.74568    0.63689    1.000
    Si1093   Si       0.03305    0.73435    0.71069    1.000
    N1094    N        0.05044    0.73136    0.67176    1.000
    Si1095   Si       0.09304    0.71947    0.67210    1.000
    Si1096   Si       0.10051    0.74063    0.74219    1.000
    N1097    N        0.06193    0.71783    0.73951    1.000
    N1098    N        0.18146    0.74751    0.70909    1.000
    N1099    N        0.17183    0.75987    0.64244    1.000
    N1100    N        0.23083    0.72719    0.64362    1.000
    N1101    N        0.11863    0.72607    0.70607    1.000
    Si1102   Si       0.18863    0.72060    0.64135    1.000
    Si1103   Si       0.21046    0.74762    0.73984    1.000
    Si1104   Si       0.06750    0.73549    0.83629    1.000
    Si1105   Si       0.03391    0.73912    0.77025    1.000
    N1106    N        0.06410    0.75620    0.79509    1.000
    N1107    N        0.07997    0.76563    0.86476    1.000
    N1108    N        0.99665    0.71928    0.78360    1.000
    N1109    N        0.19692    0.72898    0.77703    1.000
    N1110    N        0.15313    0.73391    0.83570    1.000
    Si1111   Si       0.16108    0.74655    0.79505    1.000
    N1112    N        0.12969    0.72753    0.77254    1.000
    N1113    N        0.22704    0.71705    0.83516    1.000
    Si1114   Si       0.00773    0.72557    0.87693    1.000
    N1115    N        0.04184    0.73131    0.90584    1.000
    N1116    N        0.04157    0.74802    0.99023    1.000
    Si1117   Si       0.06305    0.76984    0.90367    1.000
    Si1118   Si       0.99752    0.76414    0.99186    1.000
    N1119    N        0.20080    0.75245    0.88418    1.000
    Si1120   Si       0.15798    0.75854    0.87193    1.000
    N1121    N        0.13668    0.74287    0.90765    1.000
    Si1122   Si       0.12921    0.77028    0.94623    1.000
    N1123    N        0.13773    0.73777    0.97840    1.000
    Si1124   Si       0.22413    0.75414    0.98722    1.000
    Si1125   Si       0.04280    0.79680    0.04316    1.000
    N1126    N        0.06707    0.80577    0.00927    1.000
    Si1127   Si       0.10730    0.81819    0.01689    1.000
    N1128    N        0.00285    0.78003    0.03450    1.000
    N1129    N        0.11257    0.79631    0.11257    1.000
    N1130    N        0.11884    0.79066    0.04721    1.000
    Si1131   Si       0.14806    0.82224    0.10766    1.000
    Si1132   Si       0.22135    0.78787    0.05458    1.000
    N1133    N        0.18689    0.80534    0.11917    1.000
    N1134    N        0.18379    0.77116    0.04548    1.000
    Si1135   Si       0.05516    0.81385    0.22961    1.000
    N1136    N        0.03103    0.78451    0.21248    1.000
    Si1137   Si       0.07864    0.80309    0.13977    1.000
    N1138    N        0.08923    0.78637    0.18166    1.000
    N1139    N        0.08876    0.79249    0.24850    1.000
    N1140    N        0.23367    0.77381    0.16022    1.000
    N1141    N        0.15446    0.77378    0.21456    1.000
    N1142    N        0.19404    0.82491    0.19324    1.000
    Si1143   Si       0.11712    0.79765    0.21474    1.000
    N1144    N        0.22540    0.77785    0.23149    1.000
    Si1145   Si       0.18681    0.79943    0.22807    1.000
    Si1146   Si       0.23325    0.81451    0.17784    1.000
    N1147    N        0.02467    0.81548    0.34091    1.000
    Si1148   Si       0.04686    0.77661    0.34298    1.000
    N1149    N        0.13770    0.80821    0.32797    1.000
    N1150    N        0.18015    0.81251    0.27082    1.000
    N1151    N        0.20177    0.78876    0.33584    1.000
    Si1152   Si       0.16736    0.78532    0.30484    1.000
    Si1153   Si       0.11907    0.79696    0.36671    1.000
    N1154    N        0.05096    0.78040    0.42249    1.000
    Si1155   Si       0.07458    0.81483    0.43249    1.000
    N1156    N        0.09359    0.80445    0.46974    1.000
    N1157    N        0.10620    0.82224    0.40227    1.000
    Si1158   Si       0.01670    0.77589    0.44834    1.000
    N1159    N        0.20813    0.82639    0.39254    1.000
    N1160    N        0.22075    0.80463    0.45438    1.000
    Si1161   Si       0.19415    0.78846    0.37752    1.000
    N1162    N        0.15343    0.77678    0.38633    1.000
    Si1163   Si       0.18752    0.79549    0.48132    1.000
    N1164    N        0.00201    0.79683    0.54969    1.000
    Si1165   Si       0.03974    0.78765    0.52761    1.000
    N1166    N        0.05790    0.82754    0.52362    1.000
    Si1167   Si       0.09914    0.82635    0.50788    1.000
    N1168    N        0.11922    0.80390    0.53743    1.000
    N1169    N        0.12980    0.80601    0.61385    1.000
    Si1170   Si       0.14042    0.81328    0.57258    1.000
    N1171    N        0.18401    0.80913    0.56655    1.000
    Si1172   Si       0.21273    0.78028    0.54890    1.000
    Si1173   Si       0.03209    0.80583    0.63993    1.000
    N1174    N        0.07286    0.81013    0.65435    1.000
    N1175    N        0.99405    0.80250    0.66109    1.000
    N1176    N        0.98784    0.82913    0.71964    1.000
    N1177    N        0.09803    0.78450    0.74346    1.000
    Si1178   Si       0.99314    0.79538    0.74385    1.000
    N1179    N        0.14097    0.80192    0.68594    1.000
    Si1180   Si       0.24037    0.81088    0.71688    1.000
    Si1181   Si       0.11534    0.81858    0.65279    1.000
    Si1182   Si       0.12470    0.81398    0.72363    1.000
    N1183    N        0.21667    0.80075    0.68146    1.000
    Si1184   Si       0.17716    0.78022    0.67942    1.000
    Si1185   Si       0.10383    0.80076    0.85587    1.000
    Si1186   Si       0.07777    0.79500    0.78043    1.000
    N1187    N        0.10362    0.80595    0.81310    1.000
    N1188    N        0.05399    0.83063    0.76994    1.000
    Si1189   Si       0.18516    0.81647    0.76670    1.000
    N1190    N        0.16430    0.78968    0.79368    1.000
    N1191    N        0.14782    0.80097    0.86144    1.000
    Si1192   Si       0.14531    0.81922    0.81755    1.000
    N1193    N        0.21408    0.79096    0.74729    1.000
    N1194    N        0.03495    0.80377    0.89608    1.000
    N1195    N        0.01514    0.79433    0.95950    1.000
    Si1196   Si       0.99847    0.80461    0.92034    1.000
    Si1197   Si       0.05635    0.78608    0.97308    1.000
    N1198    N        0.08456    0.77879    0.94108    1.000
    N1199    N        0.13614    0.79773    0.98809    1.000
    Si1200   Si       0.17215    0.81518    0.96801    1.000
    N1201    N        0.20974    0.82429    0.88682    1.000
    Si1202   Si       0.16659    0.82542    0.89379    1.000
    N1203    N        0.15145    0.80333    0.92910    1.000
    Si1204   Si       0.22844    0.78451    0.88588    1.000
    N1205    N        0.20188    0.78333    0.96675    1.000
    Si1206   Si       0.04521    0.87924    0.05440    1.000
    Si1207   Si       0.02661    0.84400    0.10420    1.000
    N1208    N        0.02272    0.88591    0.09299    1.000
    N1209    N        0.10865    0.86111    0.00885    1.000
    N1210    N        0.04108    0.83443    0.06393    1.000
    Si1211   Si       0.18922    0.85157    0.04862    1.000
    N1212    N        0.15613    0.85146    0.07545    1.000
    Si1213   Si       0.15894    0.88175    0.10843    1.000
    Si1214   Si       0.21689    0.83620    0.10840    1.000
    N1215    N        0.18198    0.83839    0.00636    1.000
    N1216    N        0.20284    0.87739    0.11534    1.000
    N1217    N        0.22474    0.83062    0.06442    1.000
    N1218    N        0.05774    0.85361    0.20759    1.000
    N1219    N        0.05636    0.84064    0.13664    1.000
    Si1220   Si       0.05873    0.87017    0.16683    1.000
    Si1221   Si       0.03366    0.87455    0.23872    1.000
    Si1222   Si       0.15972    0.84696    0.17945    1.000
    Si1223   Si       0.11727    0.88260    0.20375    1.000
    N1224    N        0.14405    0.85298    0.13735    1.000
    N1225    N        0.16199    0.88822    0.19160    1.000
    N1226    N        0.12795    0.83858    0.20701    1.000
    Si1227   Si       0.02365    0.85692    0.35808    1.000
    N1228    N        0.01542    0.87352    0.31958    1.000
    N1229    N        0.10421    0.87516    0.30936    1.000
    N1230    N        0.03579    0.83615    0.26251    1.000
    Si1231   Si       0.01482    0.83466    0.29883    1.000
    Si1232   Si       0.09579    0.88968    0.35026    1.000
    N1233    N        0.18026    0.86366    0.31549    1.000
    Si1234   Si       0.13965    0.85176    0.32650    1.000
    Si1235   Si       0.20283    0.84789    0.28267    1.000
    N1236    N        0.13280    0.87084    0.36556    1.000
    N1237    N        0.21653    0.87669    0.25174    1.000
    N1238    N        0.23628    0.87685    0.35771    1.000
    N1239    N        0.06136    0.87458    0.37318    1.000
    N1240    N        0.04399    0.84640    0.43410    1.000
    Si1241   Si       0.00055    0.84585    0.43268    1.000
    Si1242   Si       0.05868    0.88255    0.41529    1.000
    N1243    N        0.99501    0.85875    0.39016    1.000
    N1244    N        0.18168    0.83592    0.49327    1.000
    N1245    N        0.16266    0.85515    0.43052    1.000
    Si1246   Si       0.12652    0.85972    0.40655    1.000
    N1247    N        0.11676    0.86258    0.49317    1.000
    Si1248   Si       0.15582    0.86419    0.47352    1.000
    N1249    N        0.22746    0.86949    0.45840    1.000
    Si1250   Si       0.20525    0.84016    0.43258    1.000
    Si1251   Si       0.03668    0.86446    0.52352    1.000
    Si1252   Si       0.01785    0.87649    0.59881    1.000
    N1253    N        0.99371    0.85528    0.51945    1.000
    N1254    N        0.04331    0.88238    0.56199    1.000
    N1255    N        0.14626    0.85811    0.57516    1.000
    Si1256   Si       0.18988    0.85515    0.56878    1.000
    N1257    N        0.22078    0.85622    0.60206    1.000
    N1258    N        0.20854    0.87694    0.53560    1.000
    Si1259   Si       0.13439    0.88093    0.60925    1.000
    Si1260   Si       0.22194    0.85403    0.49955    1.000
    N1261    N        0.98823    0.87891    0.67674    1.000
    N1262    N        0.02100    0.84346    0.62357    1.000
    Si1263   Si       0.99706    0.87185    0.71848    1.000
    N1264    N        0.09730    0.84698    0.71139    1.000
    N1265    N        0.03813    0.88576    0.72559    1.000
    Si1266   Si       0.07072    0.86153    0.74496    1.000
    Si1267   Si       0.11124    0.88051    0.68702    1.000
    Si1268   Si       0.98477    0.84717    0.64809    1.000
    N1269    N        0.23824    0.85328    0.73127    1.000
    N1270    N        0.12538    0.86367    0.64930    1.000
    Si1271   Si       0.24182    0.87406    0.69446    1.000
    N1272    N        0.15320    0.83871    0.74638    1.000
    N1273    N        0.00147    0.87534    0.79529    1.000
    Si1274   Si       0.01862    0.83536    0.79702    1.000
    N1275    N        0.10044    0.88778    0.76048    1.000
    N1276    N        0.09216    0.84216    0.86836    1.000
    N1277    N        0.03023    0.82890    0.83643    1.000
    Si1278   Si       0.12273    0.87344    0.86367    1.000
    N1279    N        0.20466    0.84516    0.79322    1.000
    N1280    N        0.14970    0.86074    0.82951    1.000
    Si1281   Si       0.18444    0.87966    0.81085    1.000
    Si1282   Si       0.14210    0.88186    0.74724    1.000
    Si1283   Si       0.04799    0.83853    0.87395    1.000
    N1284    N        0.06058    0.85390    0.94948    1.000
    Si1285   Si       0.02463    0.86903    0.93056    1.000
    N1286    N        0.02935    0.87565    0.88736    1.000
    Si1287   Si       0.09298    0.87115    0.96777    1.000
    N1288    N        0.19562    0.84767    0.94680    1.000
    Si1289   Si       0.20466    0.87166    0.98745    1.000
    N1290    N        0.15267    0.86582    0.89539    1.000
    Si1291   Si       0.22221    0.85519    0.91471    1.000
    Si1292   Si       0.10663    0.90151    0.02172    1.000
    N1293    N        0.08063    0.90314    0.05589    1.000
    Si1294   Si       0.07588    0.93942    0.07946    1.000
    N1295    N        0.99706    0.94283    0.11151    1.000
    N1296    N        0.02339    0.89295    0.01969    1.000
    N1297    N        0.07217    0.93605    0.12137    1.000
    N1298    N        0.13317    0.93421    0.01879    1.000
    Si1299   Si       0.21790    0.93006    0.04565    1.000
    N1300    N        0.21246    0.93847    0.08720    1.000
    N1301    N        0.13894    0.92049    0.11063    1.000
    N1302    N        0.20778    0.88806    0.03372    1.000
    Si1303   Si       0.03299    0.93086    0.13801    1.000
    Si1304   Si       0.10965    0.92771    0.14375    1.000
    N1305    N        0.02353    0.89598    0.16276    1.000
    N1306    N        0.09501    0.89498    0.16912    1.000
    N1307    N        0.11003    0.90795    0.23729    1.000
    N1308    N        0.99653    0.88655    0.22304    1.000
    Si1309   Si       0.17813    0.92603    0.19498    1.000
    Si1310   Si       0.23843    0.93037    0.19364    1.000
    N1311    N        0.20514    0.93146    0.16177    1.000
    Si1312   Si       0.22082    0.91544    0.12327    1.000
    N1313    N        0.20893    0.94028    0.22622    1.000
    Si1314   Si       0.01457    0.91069    0.29565    1.000
    Si1315   Si       0.09250    0.90455    0.27729    1.000
    N1316    N        0.04860    0.90269    0.26841    1.000
    N1317    N        0.10119    0.93176    0.35727    1.000
    N1318    N        0.10999    0.94429    0.28734    1.000
    N1319    N        0.21101    0.92631    0.29944    1.000
    N1320    N        0.20474    0.93125    0.36222    1.000
    Si1321   Si       0.22461    0.91808    0.25944    1.000
    Si1322   Si       0.20655    0.89556    0.33110    1.000
    Si1323   Si       0.03470    0.92608    0.47621    1.000
    N1324    N        0.03846    0.91905    0.43172    1.000
    Si1325   Si       0.01144    0.94225    0.40512    1.000
    Si1326   Si       0.09935    0.90339    0.49555    1.000
    N1327    N        0.11353    0.93609    0.46890    1.000
    N1328    N        0.10103    0.89172    0.42223    1.000
    N1329    N        0.05592    0.89190    0.49477    1.000
    Si1330   Si       0.11572    0.93120    0.42435    1.000
    Si1331   Si       0.15787    0.94235    0.46636    1.000
    N1332    N        0.23192    0.93300    0.42102    1.000
    N1333    N        0.16906    0.90458    0.48415    1.000
    N1334    N        0.15889    0.93414    0.42238    1.000
    N1335    N        0.22800    0.93255    0.49363    1.000
    Si1336   Si       0.24016    0.91151    0.45740    1.000
    Si1337   Si       0.07601    0.91136    0.56743    1.000
    N1338    N        0.09528    0.89732    0.60394    1.000
    N1339    N        0.10459    0.91688    0.53540    1.000
    N1340    N        0.03264    0.91324    0.61790    1.000
    N1341    N        0.99646    0.92180    0.50086    1.000
    N1342    N        0.17607    0.94384    0.54050    1.000
    N1343    N        0.17269    0.90357    0.61325    1.000
    Si1344   Si       0.19676    0.91435    0.51659    1.000
    Si1345   Si       0.16585    0.94716    0.61282    1.000
    Si1346   Si       0.13361    0.94867    0.54549    1.000
    Si1347   Si       0.05449    0.92287    0.71019    1.000
    Si1348   Si       0.07181    0.91681    0.63702    1.000
    N1349    N        0.07718    0.90458    0.67714    1.000
    N1350    N        0.06991    0.94880    0.74285    1.000
    Si1351   Si       0.17723    0.92073    0.68876    1.000
    N1352    N        0.19618    0.94619    0.72025    1.000
    N1353    N        0.14560    0.89787    0.70630    1.000
    N1354    N        0.15851    0.94652    0.65651    1.000
    Si1355   Si       0.21263    0.89260    0.62705    1.000
    N1356    N        0.21095    0.89387    0.67166    1.000
    Si1357   Si       0.02101    0.91348    0.80079    1.000
    N1358    N        0.06280    0.91729    0.80539    1.000
    Si1359   Si       0.09542    0.93021    0.77762    1.000
    N1360    N        0.00413    0.92745    0.83783    1.000
    Si1361   Si       0.07653    0.93901    0.83935    1.000
    N1362    N        0.00950    0.94066    0.76790    1.000
    N1363    N        0.10668    0.91371    0.86342    1.000
    N1364    N        0.17157    0.90018    0.77486    1.000
    N1365    N        0.21275    0.90271    0.83456    1.000
    Si1366   Si       0.17658    0.94206    0.76006    1.000
    Si1367   Si       0.19692    0.92550    0.87191    1.000
    N1368    N        0.13396    0.94980    0.75633    1.000
    Si1369   Si       0.13406    0.94567    0.87368    1.000
    Si1370   Si       0.99840    0.90318    0.87202    1.000
    N1371    N        0.00449    0.93832    0.89819    1.000
    N1372    N        0.02071    0.90698    0.95225    1.000
    Si1373   Si       0.10292    0.93178    0.95307    1.000
    N1374    N        0.07984    0.91186    0.98334    1.000
    Si1375   Si       0.03839    0.91953    0.98976    1.000
    Si1376   Si       0.02847    0.94800    0.93331    1.000
    N1377    N        0.07326    0.94681    0.92345    1.000
    N1378    N        0.18400    0.90610    0.96769    1.000
    Si1379   Si       0.16777    0.93893    0.99105    1.000
    N1380    N        0.12306    0.89347    0.94508    1.000
    Si1381   Si       0.16383    0.89259    0.92776    1.000
    Si1382   Si       0.22065    0.93312    0.92990    1.000
    N1383    N        0.16274    0.93412    0.90536    1.000
    N1384    N        0.21031    0.89610    0.90490    1.000
    N1385    N        0.04272    0.96547    0.06545    1.000
    Si1386   Si       0.00096    0.97315    0.08083    1.000
    N1387    N        0.08228    0.99512    0.01358    1.000
    Si1388   Si       0.05788    0.00374    0.04964    1.000
    N1389    N        0.11119    0.96762    0.07173    1.000
    Si1390   Si       0.11897    0.97522    0.03077    1.000
    Si1391   Si       0.21162    0.98193    0.09266    1.000
    Si1392   Si       0.14125    0.96511    0.10394    1.000
    Si1393   Si       0.19552    0.99984    0.02322    1.000
    N1394    N        0.17080    0.99680    0.09896    1.000
    N1395    N        0.22648    0.99750    0.05603    1.000
    N1396    N        0.19563    0.95590    0.01867    1.000
    N1397    N        0.15149    0.00562    0.02392    1.000
    N1398    N        0.02205    0.96724    0.16170    1.000
    N1399    N        0.10073    0.98956    0.23979    1.000
    N1400    N        0.19560    0.99413    0.18556    1.000
    Si1401   Si       0.19598    0.98296    0.22839    1.000
    Si1402   Si       0.23442    0.99273    0.16591    1.000
    N1403    N        0.13255    0.96856    0.14792    1.000
    Si1404   Si       0.15219    0.99031    0.17926    1.000
    N1405    N        0.14962    0.95682    0.20840    1.000
    Si1406   Si       0.12433    0.95421    0.24562    1.000
    N1407    N        0.24119    0.98663    0.12370    1.000
    N1408    N        0.09588    0.99478    0.34405    1.000
    Si1409   Si       0.01584    0.00004    0.31390    1.000
    N1410    N        0.01256    0.95202    0.31181    1.000
    N1411    N        0.98601    0.99619    0.34897    1.000
    Si1412   Si       0.12067    0.96015    0.32775    1.000
    Si1413   Si       0.20043    0.95924    0.32625    1.000
    N1414    N        0.16061    0.97639    0.32407    1.000
    N1415    N        0.22442    0.99291    0.31748    1.000
    N1416    N        0.16689    0.99790    0.25766    1.000
    N1417    N        0.23669    0.00354    0.24332    1.000
    Si1418   Si       0.07935    0.96691    0.37506    1.000
    N1419    N        0.10010    0.97101    0.41246    1.000
    Si1420   Si       0.09582    0.97225    0.48457    1.000
    N1421    N        0.03750    0.97277    0.38592    1.000
    N1422    N        0.05463    0.96106    0.49152    1.000
    N1423    N        0.16335    0.98681    0.46580    1.000
    N1424    N        0.19448    0.99031    0.39855    1.000
    Si1425   Si       0.19275    0.94815    0.39999    1.000
    N1426    N        0.00327    0.98784    0.52408    1.000
    Si1427   Si       0.04670    0.98204    0.52930    1.000
    N1428    N        0.01670    0.98467    0.61212    1.000
    Si1429   Si       0.10558    0.98213    0.60913    1.000
    N1430    N        0.05680    0.95200    0.56312    1.000
    Si1431   Si       0.02464    0.94846    0.59247    1.000
    N1432    N        0.13194    0.95686    0.58676    1.000
    N1433    N        0.12294    0.97955    0.51729    1.000
    Si1434   Si       0.19894    0.97774    0.55353    1.000
    N1435    N        0.19730    0.97482    0.59820    1.000
    Si1436   Si       0.15418    0.00950    0.50480    1.000
    N1437    N        0.08063    0.95924    0.63382    1.000
    N1438    N        0.01352    0.99814    0.72782    1.000
    Si1439   Si       0.99944    0.97184    0.69632    1.000
    Si1440   Si       0.07019    0.97886    0.67086    1.000
    Si1441   Si       0.10437    0.97459    0.73474    1.000
    N1442    N        0.10745    0.98020    0.69288    1.000
    N1443    N        0.03735    0.95465    0.68809    1.000
    Si1444   Si       0.21418    0.98361    0.70629    1.000
    N1445    N        0.18170    0.00496    0.68397    1.000
    Si1446   Si       0.14494    0.98837    0.67077    1.000
    N1447    N        0.13369    0.00595    0.63331    1.000
    Si1448   Si       0.00354    0.96344    0.86252    1.000
    N1449    N        0.05160    0.96735    0.85802    1.000
    Si1450   Si       0.03646    0.97409    0.75860    1.000
    N1451    N        0.10456    0.96068    0.81137    1.000
    N1452    N        0.03649    0.99976    0.79242    1.000
    N1453    N        0.00046    0.00523    0.85144    1.000
    Si1454   Si       0.11164    0.00393    0.79907    1.000
    N1455    N        0.19947    0.97041    0.78540    1.000
    Si1456   Si       0.18076    0.98563    0.82447    1.000
    N1457    N        0.16830    0.94989    0.84599    1.000
    Si1458   Si       0.01596    0.00330    0.96781    1.000
    Si1459   Si       0.06990    0.98347    0.89672    1.000
    N1460    N        0.02906    0.96262    0.97821    1.000
    N1461    N        0.03051    0.99515    0.92366    1.000
    N1462    N        0.11266    0.98327    0.88353    1.000
    N1463    N        0.13844    0.96004    0.96271    1.000
    N1464    N        0.20337    0.96899    0.94716    1.000
    N1465    N        0.23095    0.95035    0.88737    1.000
    Si1466   Si       0.16461    0.97082    0.92901    1.000
    Si1467   Si       0.22791    0.00401    0.95175    1.000
    N1468    N        0.27448    0.03542    0.01484    1.000
    Si1469   Si       0.30751    0.05224    0.08889    1.000
    N1470    N        0.28822    0.01434    0.08210    1.000
    N1471    N        0.34803    0.04648    0.11095    1.000
    N1472    N        0.32163    0.06673    0.04989    1.000
    N1473    N        0.47481    0.03640    0.07381    1.000
    Si1474   Si       0.38993    0.04701    0.10207    1.000
    N1475    N        0.40383    0.03301    0.06383    1.000
    Si1476   Si       0.43953    0.00921    0.07026    1.000
    Si1477   Si       0.29351    0.03683    0.16068    1.000
    N1478    N        0.25465    0.02955    0.18107    1.000
    N1479    N        0.32431    0.05854    0.18117    1.000
    Si1480   Si       0.24272    0.04168    0.22078    1.000
    N1481    N        0.27693    0.06403    0.23925    1.000
    N1482    N        0.36060    0.03057    0.23681    1.000
    Si1483   Si       0.35722    0.06231    0.20987    1.000
    Si1484   Si       0.42286    0.03637    0.17632    1.000
    N1485    N        0.46239    0.04881    0.18606    1.000
    N1486    N        0.41367    0.02852    0.13305    1.000
    N1487    N        0.34341    0.03566    0.31135    1.000
    N1488    N        0.24993    0.05035    0.29960    1.000
    Si1489   Si       0.34507    0.01274    0.34808    1.000
    Si1490   Si       0.25184    0.00790    0.28495    1.000
    Si1491   Si       0.37162    0.03604    0.27810    1.000
    Si1492   Si       0.44533    0.04079    0.30647    1.000
    N1493    N        0.46556    0.02872    0.34378    1.000
    N1494    N        0.47401    0.04510    0.27412    1.000
    N1495    N        0.40798    0.02016    0.29134    1.000
    N1496    N        0.32252    0.03449    0.37776    1.000
    N1497    N        0.30443    0.03515    0.44533    1.000
    N1498    N        0.35655    0.06271    0.48048    1.000
    Si1499   Si       0.30488    0.01074    0.40900    1.000
    Si1500   Si       0.36284    0.02003    0.47337    1.000
    Si1501   Si       0.29079    0.00719    0.47715    1.000
    N1502    N        0.48450    0.06147    0.41255    1.000
    Si1503   Si       0.39761    0.01302    0.40745    1.000
    N1504    N        0.40203    0.01576    0.49255    1.000
    N1505    N        0.40998    0.05344    0.40851    1.000
    N1506    N        0.46974    0.03099    0.47331    1.000
    Si1507   Si       0.26454    0.01333    0.54818    1.000
    N1508    N        0.35304    0.06157    0.60253    1.000
    N1509    N        0.25873    0.01157    0.50494    1.000
    N1510    N        0.30363    0.01098    0.56180    1.000
    Si1511   Si       0.36624    0.02033    0.59473    1.000
    N1512    N        0.37210    0.01671    0.55278    1.000
    Si1513   Si       0.48099    0.04399    0.51400    1.000
    Si1514   Si       0.40907    0.03073    0.53372    1.000
    N1515    N        0.45146    0.02106    0.53862    1.000
    N1516    N        0.45522    0.05716    0.61632    1.000
    Si1517   Si       0.48568    0.02900    0.60770    1.000
    N1518    N        0.40598    0.01022    0.61176    1.000
    Si1519   Si       0.26443    0.01317    0.66041    1.000
    N1520    N        0.35387    0.04847    0.71120    1.000
    N1521    N        0.30557    0.02012    0.67170    1.000
    Si1522   Si       0.31865    0.05943    0.68688    1.000
    N1523    N        0.48135    0.06071    0.69837    1.000
    N1524    N        0.39357    0.06609    0.65583    1.000
    Si1525   Si       0.42324    0.03915    0.63787    1.000
    Si1526   Si       0.44997    0.03350    0.70888    1.000
    N1527    N        0.41693    0.05517    0.72926    1.000
    N1528    N        0.43433    0.01442    0.67216    1.000
    N1529    N        0.31764    0.04110    0.82749    1.000
    Si1530   Si       0.29361    0.03592    0.79069    1.000
    N1531    N        0.31119    0.01462    0.75675    1.000
    Si1532   Si       0.24726    0.02179    0.84185    1.000
    Si1533   Si       0.31584    0.02727    0.86799    1.000
    Si1534   Si       0.35354    0.06514    0.81858    1.000
    Si1535   Si       0.35301    0.02615    0.74719    1.000
    N1536    N        0.36810    0.04751    0.78016    1.000
    N1537    N        0.43570    0.02073    0.79040    1.000
    Si1538   Si       0.47670    0.02461    0.77387    1.000
    Si1539   Si       0.41041    0.05224    0.77293    1.000
    N1540    N        0.37940    0.06722    0.85518    1.000
    N1541    N        0.33128    0.02104    0.97838    1.000
    Si1542   Si       0.28834    0.02671    0.97583    1.000
    N1543    N        0.32380    0.05500    0.89916    1.000
    N1544    N        0.27866    0.06234    0.95220    1.000
    Si1545   Si       0.36680    0.04028    0.96411    1.000
    Si1546   Si       0.36768    0.04551    0.89220    1.000
    N1547    N        0.46026    0.03748    0.96416    1.000
    N1548    N        0.38905    0.02900    0.92775    1.000
    Si1549   Si       0.43447    0.06199    0.98830    1.000
    Si1550   Si       0.42716    0.01247    0.94338    1.000
    Si1551   Si       0.48253    0.03752    0.92587    1.000
    N1552    N        0.39964    0.03573    0.99082    1.000
    Si1553   Si       0.33657    0.10480    0.03759    1.000
    N1554    N        0.30030    0.11206    0.01144    1.000
    N1555    N        0.26476    0.08160    0.07492    1.000
    Si1556   Si       0.27781    0.07748    0.03038    1.000
    Si1557   Si       0.26429    0.09473    0.11621    1.000
    N1558    N        0.37750    0.09885    0.01922    1.000
    N1559    N        0.39546    0.08911    0.08819    1.000
    N1560    N        0.44208    0.07840    0.02761    1.000
    N1561    N        0.47711    0.10443    0.08513    1.000
    Si1562   Si       0.40390    0.07433    0.04719    1.000
    Si1563   Si       0.47665    0.07619    0.05164    1.000
    Si1564   Si       0.37292    0.12455    0.10036    1.000
    Si1565   Si       0.33554    0.07616    0.14208    1.000
    N1566    N        0.27123    0.11186    0.18576    1.000
    Si1567   Si       0.29805    0.08518    0.20717    1.000
    N1568    N        0.33608    0.10065    0.22204    1.000
    N1569    N        0.35034    0.11573    0.13729    1.000
    N1570    N        0.29385    0.06888    0.12963    1.000
    Si1571   Si       0.42311    0.10205    0.20447    1.000
    Si1572   Si       0.48753    0.08369    0.18630    1.000
    N1573    N        0.39752    0.06801    0.19127    1.000
    N1574    N        0.45883    0.11623    0.18302    1.000
    Si1575   Si       0.34254    0.08167    0.31319    1.000
    N1576    N        0.30627    0.09994    0.29976    1.000
    N1577    N        0.35313    0.09781    0.35230    1.000
    Si1578   Si       0.27180    0.08066    0.28036    1.000
    N1579    N        0.24982    0.11727    0.27851    1.000
    N1580    N        0.37531    0.08055    0.28426    1.000
    Si1581   Si       0.41382    0.09794    0.27997    1.000
    N1582    N        0.43975    0.08451    0.31202    1.000
    Si1583   Si       0.47073    0.11398    0.32239    1.000
    Si1584   Si       0.47935    0.08504    0.25621    1.000
    N1585    N        0.43824    0.09255    0.24395    1.000
    N1586    N        0.35349    0.08141    0.41863    1.000
    Si1587   Si       0.32862    0.07757    0.38262    1.000
    N1588    N        0.30721    0.10974    0.45767    1.000
    Si1589   Si       0.27354    0.11262    0.42863    1.000
    N1590    N        0.29153    0.09766    0.39104    1.000
    Si1591   Si       0.32686    0.07172    0.44994    1.000
    Si1592   Si       0.39922    0.09209    0.42114    1.000
    Si1593   Si       0.47847    0.09594    0.43857    1.000
    N1594    N        0.43560    0.10569    0.44148    1.000
    N1595    N        0.33054    0.08443    0.54106    1.000
    N1596    N        0.27734    0.08152    0.59807    1.000
    Si1597   Si       0.31833    0.07548    0.58217    1.000
    N1598    N        0.32711    0.11991    0.59497    1.000
    Si1599   Si       0.36509    0.08422    0.51600    1.000
    Si1600   Si       0.43763    0.10005    0.53915    1.000
    N1601    N        0.47589    0.08745    0.52194    1.000
    N1602    N        0.40451    0.07321    0.53199    1.000
    N1603    N        0.44414    0.11526    0.58151    1.000
    Si1604   Si       0.46231    0.09955    0.61626    1.000
    Si1605   Si       0.28875    0.11910    0.62417    1.000
    N1606    N        0.25674    0.11386    0.65616    1.000
    N1607    N        0.33028    0.09408    0.66249    1.000
    N1608    N        0.29016    0.07907    0.71214    1.000
    Si1609   Si       0.25254    0.08649    0.69087    1.000
    Si1610   Si       0.36385    0.08682    0.63442    1.000
    Si1611   Si       0.39031    0.07044    0.69921    1.000
    N1612    N        0.39477    0.11383    0.69644    1.000
    N1613    N        0.44604    0.11895    0.65112    1.000
    N1614    N        0.48306    0.12391    0.72859    1.000
    N1615    N        0.33935    0.10496    0.81253    1.000
    N1616    N        0.27668    0.07322    0.77932    1.000
    N1617    N        0.24001    0.06735    0.83951    1.000
    Si1618   Si       0.27853    0.10202    0.74653    1.000
    N1619    N        0.48027    0.06834    0.77012    1.000
    N1620    N        0.41594    0.08988    0.79110    1.000
    Si1621   Si       0.40980    0.09848    0.85273    1.000
    N1622    N        0.45107    0.09175    0.84176    1.000
    Si1623   Si       0.46012    0.10096    0.79778    1.000
    Si1624   Si       0.48462    0.09068    0.86773    1.000
    Si1625   Si       0.24463    0.07181    0.92953    1.000
    N1626    N        0.25355    0.10008    0.89849    1.000
    N1627    N        0.35285    0.08133    0.95655    1.000
    Si1628   Si       0.31559    0.08134    0.93526    1.000
    N1629    N        0.30495    0.12358    0.94037    1.000
    N1630    N        0.41870    0.09291    0.96180    1.000
    N1631    N        0.47016    0.07494    0.90715    1.000
    N1632    N        0.41493    0.11703    0.89553    1.000
    Si1633   Si       0.38080    0.10808    0.97625    1.000
    Si1634   Si       0.44231    0.10319    0.92630    1.000
    Si1635   Si       0.30703    0.15084    0.09047    1.000
    N1636    N        0.27614    0.17193    0.06661    1.000
    N1637    N        0.34014    0.12686    0.07320    1.000
    N1638    N        0.33081    0.17928    0.11352    1.000
    N1639    N        0.29485    0.17774    0.99867    1.000
    N1640    N        0.46140    0.17248    0.00904    1.000
    N1641    N        0.44408    0.17312    0.07921    1.000
    Si1642   Si       0.47980    0.14813    0.08592    1.000
    N1643    N        0.39325    0.15695    0.12022    1.000
    N1644    N        0.28403    0.13423    0.12196    1.000
    Si1645   Si       0.28585    0.14811    0.16525    1.000
    N1646    N        0.32671    0.15930    0.18131    1.000
    Si1647   Si       0.35229    0.13975    0.21107    1.000
    Si1648   Si       0.35600    0.16136    0.14727    1.000
    N1649    N        0.25970    0.18269    0.17074    1.000
    Si1650   Si       0.47997    0.15015    0.16632    1.000
    N1651    N        0.45454    0.18529    0.17072    1.000
    N1652    N        0.39609    0.13562    0.21318    1.000
    N1653    N        0.26579    0.14529    0.34179    1.000
    Si1654   Si       0.28214    0.13794    0.30247    1.000
    N1655    N        0.29040    0.17681    0.28684    1.000
    N1656    N        0.35364    0.16991    0.24441    1.000
    N1657    N        0.41070    0.14121    0.28424    1.000
    N1658    N        0.46098    0.15574    0.33139    1.000
    Si1659   Si       0.42174    0.16665    0.31721    1.000
    N1660    N        0.39424    0.16623    0.34963    1.000
    Si1661   Si       0.36854    0.13488    0.36721    1.000
    Si1662   Si       0.39674    0.16088    0.24837    1.000
    N1663    N        0.32956    0.15274    0.37820    1.000
    N1664    N        0.33683    0.17458    0.46745    1.000
    Si1665   Si       0.28927    0.14004    0.37716    1.000
    Si1666   Si       0.32596    0.13757    0.48410    1.000
    N1667    N        0.26466    0.15187    0.41222    1.000
    N1668    N        0.25715    0.17911    0.47195    1.000
    N1669    N        0.40577    0.16774    0.46524    1.000
    N1670    N        0.39571    0.12889    0.40032    1.000
    Si1671   Si       0.42236    0.14866    0.42875    1.000
    N1672    N        0.29843    0.14192    0.51837    1.000
    N1673    N        0.26371    0.14850    0.60336    1.000
    N1674    N        0.32778    0.17312    0.56718    1.000
    Si1675   Si       0.34591    0.15764    0.61205    1.000
    Si1676   Si       0.32833    0.13047    0.55023    1.000
    Si1677   Si       0.27808    0.18048    0.51083    1.000
    N1678    N        0.36054    0.12759    0.51031    1.000
    Si1679   Si       0.28693    0.18011    0.58393    1.000
    Si1680   Si       0.39373    0.15578    0.50643    1.000
    N1681    N        0.42981    0.14164    0.52804    1.000
    Si1682   Si       0.44939    0.15552    0.56618    1.000
    Si1683   Si       0.34092    0.13454    0.67227    1.000
    N1684    N        0.31408    0.15645    0.64674    1.000
    N1685    N        0.35550    0.16218    0.70183    1.000
    N1686    N        0.28106    0.17810    0.70397    1.000
    Si1687   Si       0.29449    0.18162    0.74471    1.000
    Si1688   Si       0.40896    0.13578    0.66135    1.000
    N1689    N        0.42537    0.16788    0.72271    1.000
    N1690    N        0.41418    0.17813    0.65915    1.000
    N1691    N        0.37291    0.13079    0.63533    1.000
    Si1692   Si       0.38767    0.14764    0.72534    1.000
    Si1693   Si       0.45807    0.15694    0.74707    1.000
    N1694    N        0.33380    0.16681    0.81572    1.000
    N1695    N        0.29978    0.13876    0.75778    1.000
    Si1696   Si       0.33534    0.13547    0.78290    1.000
    Si1697   Si       0.24661    0.14822    0.82810    1.000
    Si1698   Si       0.32384    0.13301    0.84272    1.000
    N1699    N        0.28210    0.12931    0.84460    1.000
    N1700    N        0.37454    0.14080    0.76564    1.000
    N1701    N        0.39941    0.14162    0.83802    1.000
    N1702    N        0.44494    0.14132    0.78405    1.000
    Si1703   Si       0.48170    0.17398    0.86485    1.000
    Si1704   Si       0.40534    0.13340    0.79668    1.000
    Si1705   Si       0.28481    0.13011    0.89311    1.000
    Si1706   Si       0.28673    0.13855    0.98136    1.000
    N1707    N        0.26395    0.16937    0.89882    1.000
    Si1708   Si       0.34173    0.15129    0.92779    1.000
    N1709    N        0.24662    0.14458    0.96591    1.000
    N1710    N        0.33075    0.13286    0.88667    1.000
    Si1711   Si       0.24210    0.17402    0.93552    1.000
    N1712    N        0.44034    0.18350    0.87941    1.000
    N1713    N        0.46756    0.13373    0.94342    1.000
    N1714    N        0.36670    0.14694    0.96668    1.000
    Si1715   Si       0.46953    0.16930    0.96554    1.000
    Si1716   Si       0.38886    0.18228    0.97926    1.000
    N1717    N        0.37503    0.17558    0.90259    1.000
    Si1718   Si       0.40501    0.15591    0.87817    1.000
    N1719    N        0.42510    0.18657    0.95684    1.000
    N1720    N        0.33396    0.20928    0.04945    1.000
    Si1721   Si       0.34254    0.21556    0.09055    1.000
    Si1722   Si       0.29441    0.19683    0.03731    1.000
    N1723    N        0.27127    0.23596    0.04189    1.000
    Si1724   Si       0.37014    0.22081    0.02798    1.000
    N1725    N        0.38501    0.22170    0.09335    1.000
    N1726    N        0.44844    0.23330    0.04204    1.000
    Si1727   Si       0.41586    0.19167    0.10574    1.000
    Si1728   Si       0.43642    0.19031    0.03918    1.000
    N1729    N        0.39584    0.18651    0.02409    1.000
    N1730    N        0.25330    0.23535    0.12133    1.000
    N1731    N        0.31243    0.23065    0.16527    1.000
    N1732    N        0.30478    0.20701    0.22526    1.000
    Si1733   Si       0.27164    0.22328    0.16014    1.000
    Si1734   Si       0.33794    0.20869    0.19515    1.000
    Si1735   Si       0.27383    0.23853    0.22750    1.000
    Si1736   Si       0.41777    0.19803    0.19086    1.000
    N1737    N        0.43284    0.22726    0.12745    1.000
    Si1738   Si       0.47038    0.22006    0.14995    1.000
    N1739    N        0.37646    0.19267    0.17612    1.000
    N1740    N        0.42025    0.19135    0.23304    1.000
    N1741    N        0.42509    0.24161    0.19498    1.000
    N1742    N        0.26663    0.23157    0.32628    1.000
    Si1743   Si       0.25629    0.20273    0.29583    1.000
    N1744    N        0.33143    0.21713    0.35267    1.000
    N1745    N        0.32797    0.23244    0.28446    1.000
    N1746    N        0.25057    0.22691    0.26073    1.000
    Si1747   Si       0.32255    0.19431    0.26250    1.000
    Si1748   Si       0.31037    0.23923    0.32454    1.000
    Si1749   Si       0.43047    0.22242    0.26126    1.000
    N1750    N        0.42610    0.20687    0.30226    1.000
    N1751    N        0.47985    0.22634    0.33906    1.000
    N1752    N        0.41113    0.23546    0.36286    1.000
    Si1753   Si       0.43888    0.23743    0.33021    1.000
    N1754    N        0.47045    0.23298    0.24987    1.000
    Si1755   Si       0.33320    0.19731    0.39118    1.000
    N1756    N        0.30550    0.20709    0.42267    1.000
    Si1757   Si       0.31681    0.21471    0.46685    1.000
    N1758    N        0.35746    0.23337    0.46549    1.000
    Si1759   Si       0.26695    0.19174    0.42941    1.000
    Si1760   Si       0.37332    0.19360    0.45188    1.000
    Si1761   Si       0.40483    0.19558    0.38209    1.000
    N1762    N        0.47325    0.22647    0.46050    1.000
    N1763    N        0.37151    0.19456    0.41031    1.000
    Si1764   Si       0.45406    0.22630    0.42223    1.000
    N1765    N        0.43766    0.18457    0.40905    1.000
    N1766    N        0.30948    0.21146    0.51270    1.000
    Si1767   Si       0.34392    0.20164    0.53928    1.000
    Si1768   Si       0.33800    0.23022    0.60438    1.000
    N1769    N        0.29740    0.21404    0.60936    1.000
    N1770    N        0.34160    0.24118    0.56052    1.000
    N1771    N        0.26093    0.18477    0.54983    1.000
    Si1772   Si       0.26599    0.24190    0.62139    1.000
    N1773    N        0.42495    0.18510    0.58530    1.000
    N1774    N        0.36720    0.20000    0.61509    1.000
    N1775    N        0.45965    0.20921    0.53029    1.000
    Si1776   Si       0.41903    0.21238    0.54847    1.000
    N1777    N        0.38497    0.19417    0.52839    1.000
    Si1778   Si       0.46937    0.24065    0.50264    1.000
    Si1779   Si       0.41049    0.20036    0.62296    1.000
    Si1780   Si       0.29568    0.19363    0.66122    1.000
    N1781    N        0.33146    0.22081    0.67353    1.000
    N1782    N        0.26502    0.22521    0.66150    1.000
    Si1783   Si       0.35078    0.20412    0.70883    1.000
    N1784    N        0.33071    0.20769    0.74712    1.000
    Si1785   Si       0.23848    0.18287    0.69726    1.000
    N1786    N        0.43211    0.23655    0.62969    1.000
    N1787    N        0.45676    0.22648    0.69462    1.000
    N1788    N        0.38909    0.22557    0.71031    1.000
    Si1789   Si       0.42182    0.20001    0.69586    1.000
    Si1790   Si       0.34251    0.20390    0.83382    1.000
    N1791    N        0.27610    0.21064    0.77314    1.000
    Si1792   Si       0.31077    0.23580    0.77606    1.000
    Si1793   Si       0.24327    0.21605    0.80158    1.000
    N1794    N        0.33627    0.23869    0.80964    1.000
    N1795    N        0.25388    0.19106    0.83427    1.000
    N1796    N        0.31741    0.20878    0.86911    1.000
    N1797    N        0.45013    0.22659    0.77273    1.000
    N1798    N        0.38176    0.22164    0.85153    1.000
    Si1799   Si       0.42105    0.22364    0.86688    1.000
    Si1800   Si       0.48710    0.20425    0.78982    1.000
    Si1801   Si       0.27362    0.20235    0.87236    1.000
    N1802    N        0.25427    0.21350    0.95156    1.000
    Si1803   Si       0.34592    0.20863    0.90184    1.000
    Si1804   Si       0.29461    0.20855    0.96502    1.000
    N1805    N        0.25131    0.23560    0.88662    1.000
    N1806    N        0.31919    0.18960    0.93403    1.000
    N1807    N        0.36608    0.22160    0.98425    1.000
    N1808    N        0.48402    0.19897    0.93722    1.000
    N1809    N        0.42959    0.23775    0.90868    1.000
    Si1810   Si       0.44318    0.19920    0.92061    1.000
    Si1811   Si       0.29087    0.26712    0.01635    1.000
    N1812    N        0.32152    0.28564    0.03858    1.000
    N1813    N        0.32647    0.25440    0.10394    1.000
    Si1814   Si       0.31751    0.28907    0.08062    1.000
    N1815    N        0.27394    0.29290    0.08595    1.000
    Si1816   Si       0.25857    0.25264    0.08170    1.000
    N1817    N        0.25939    0.29712    0.00671    1.000
    Si1818   Si       0.36082    0.29514    0.02241    1.000
    Si1819   Si       0.42652    0.27119    0.05057    1.000
    N1820    N        0.42281    0.28262    0.09220    1.000
    N1821    N        0.38662    0.26110    0.03587    1.000
    Si1822   Si       0.40157    0.25386    0.11704    1.000
    N1823    N        0.29857    0.27510    0.22998    1.000
    Si1824   Si       0.33291    0.26349    0.14650    1.000
    N1825    N        0.31629    0.30022    0.16023    1.000
    N1826    N        0.25062    0.24829    0.19028    1.000
    N1827    N        0.35598    0.24400    0.21806    1.000
    N1828    N        0.46365    0.29614    0.22011    1.000
    Si1829   Si       0.46452    0.25484    0.21248    1.000
    N1830    N        0.37525    0.27483    0.14811    1.000
    Si1831   Si       0.39441    0.26535    0.21646    1.000
    N1832    N        0.31981    0.27901    0.33856    1.000
    N1833    N        0.35265    0.29613    0.27055    1.000
    Si1834   Si       0.33469    0.26187    0.25219    1.000
    N1835    N        0.24043    0.29955    0.31382    1.000
    N1836    N        0.44218    0.27710    0.31211    1.000
    Si1837   Si       0.40710    0.28909    0.29154    1.000
    N1838    N        0.40709    0.25902    0.25899    1.000
    N1839    N        0.28225    0.24655    0.47056    1.000
    Si1840   Si       0.32514    0.28626    0.38210    1.000
    Si1841   Si       0.28493    0.28724    0.45336    1.000
    N1842    N        0.28429    0.29000    0.40704    1.000
    N1843    N        0.35655    0.26491    0.40126    1.000
    Si1844   Si       0.24485    0.26316    0.40692    1.000
    N1845    N        0.32745    0.29617    0.45887    1.000
    Si1846   Si       0.36204    0.27205    0.44487    1.000
    Si1847   Si       0.42665    0.27670    0.45795    1.000
    N1848    N        0.48115    0.25303    0.39919    1.000
    Si1849   Si       0.39987    0.26439    0.39068    1.000
    N1850    N        0.46161    0.29778    0.44911    1.000
    N1851    N        0.41662    0.24864    0.42891    1.000
    N1852    N        0.39143    0.30374    0.45570    1.000
    Si1853   Si       0.34120    0.28271    0.54875    1.000
    N1854    N        0.30250    0.28696    0.53043    1.000
    Si1855   Si       0.28749    0.24933    0.51556    1.000
    N1856    N        0.24567    0.24659    0.51987    1.000
    N1857    N        0.41522    0.25310    0.56257    1.000
    Si1858   Si       0.41104    0.28267    0.53113    1.000
    Si1859   Si       0.43139    0.26901    0.60008    1.000
    N1860    N        0.47123    0.28587    0.59830    1.000
    N1861    N        0.37065    0.28818    0.51622    1.000
    N1862    N        0.40377    0.29827    0.61641    1.000
    N1863    N        0.49372    0.27536    0.51655    1.000
    N1864    N        0.43097    0.26204    0.49858    1.000
    N1865    N        0.34099    0.26811    0.62355    1.000
    N1866    N        0.26636    0.28610    0.62727    1.000
    N1867    N        0.24267    0.28573    0.69043    1.000
    N1868    N        0.31343    0.28511    0.68780    1.000
    Si1869   Si       0.32124    0.29313    0.73279    1.000
    Si1870   Si       0.34489    0.26239    0.66673    1.000
    Si1871   Si       0.27796    0.29786    0.66864    1.000
    N1872    N        0.36092    0.28288    0.74473    1.000
    Si1873   Si       0.46090    0.24476    0.73418    1.000
    N1874    N        0.43019    0.27554    0.73204    1.000
    N1875    N        0.45406    0.29148    0.66693    1.000
    Si1876   Si       0.46208    0.24917    0.65786    1.000
    N1877    N        0.38262    0.28047    0.67743    1.000
    Si1878   Si       0.39120    0.26774    0.71717    1.000
    Si1879   Si       0.26300    0.28943    0.78416    1.000
    N1880    N        0.29602    0.27342    0.76103    1.000
    N1881    N        0.35487    0.29036    0.85789    1.000
    N1882    N        0.25207    0.25834    0.81409    1.000
    Si1883   Si       0.23926    0.26484    0.85629    1.000
    Si1884   Si       0.36932    0.25937    0.82939    1.000
    N1885    N        0.39948    0.27617    0.80354    1.000
    Si1886   Si       0.43943    0.25996    0.80137    1.000
    N1887    N        0.46547    0.29046    0.78354    1.000
    N1888    N        0.44601    0.24497    0.84043    1.000
    Si1889   Si       0.34699    0.28745    0.90084    1.000
    Si1890   Si       0.34501    0.25351    0.96426    1.000
    N1891    N        0.35350    0.24711    0.92166    1.000
    N1892    N        0.35920    0.29221    0.97935    1.000
    N1893    N        0.30554    0.24578    0.98224    1.000
    N1894    N        0.30917    0.29883    0.91810    1.000
    N1895    N        0.24293    0.28469    0.93627    1.000
    N1896    N        0.48836    0.27894    0.92311    1.000
    Si1897   Si       0.45691    0.29677    0.98836    1.000
    N1898    N        0.48550    0.26253    0.98997    1.000
    Si1899   Si       0.44315    0.27513    0.92222    1.000
    N1900    N        0.42621    0.29122    0.95789    1.000
    Si1901   Si       0.25798    0.33758    0.02115    1.000
    N1902    N        0.34168    0.32149    0.09818    1.000
    Si1903   Si       0.25534    0.33031    0.09760    1.000
    N1904    N        0.29678    0.35459    0.02555    1.000
    N1905    N        0.23696    0.34156    0.05938    1.000
    Si1906   Si       0.36956    0.34853    0.08074    1.000
    N1907    N        0.40901    0.35151    0.09718    1.000
    N1908    N        0.37292    0.33459    0.03897    1.000
    N1909    N        0.47557    0.32818    0.09850    1.000
    Si1910   Si       0.43403    0.31948    0.11121    1.000
    Si1911   Si       0.48689    0.31100    0.05687    1.000
    N1912    N        0.45119    0.30021    0.03076    1.000
    N1913    N        0.28609    0.34992    0.12455    1.000
    N1914    N        0.25437    0.31874    0.19226    1.000
    Si1915   Si       0.32612    0.33425    0.13688    1.000
    N1916    N        0.31198    0.34467    0.21332    1.000
    Si1917   Si       0.25478    0.34531    0.15884    1.000
    Si1918   Si       0.29609    0.30533    0.19871    1.000
    Si1919   Si       0.27833    0.36079    0.23633    1.000
    N1920    N        0.36361    0.35012    0.15661    1.000
    N1921    N        0.45494    0.35852    0.21136    1.000
    N1922    N        0.38520    0.30763    0.21048    1.000
    Si1923   Si       0.46147    0.32304    0.18539    1.000
    N1924    N        0.42933    0.31857    0.15426    1.000
    Si1925   Si       0.38729    0.31339    0.16660    1.000
    N1926    N        0.31173    0.34218    0.30899    1.000
    Si1927   Si       0.26795    0.33681    0.31318    1.000
    N1928    N        0.26033    0.33455    0.26624    1.000
    N1929    N        0.26875    0.34767    0.35867    1.000
    Si1930   Si       0.33988    0.30981    0.31252    1.000
    N1931    N        0.36095    0.36473    0.26317    1.000
    N1932    N        0.48108    0.32875    0.28214    1.000
    N1933    N        0.44130    0.33767    0.34222    1.000
    N1934    N        0.41616    0.32423    0.26497    1.000
    Si1935   Si       0.40111    0.33190    0.35699    1.000
    Si1936   Si       0.46709    0.31083    0.32094    1.000
    N1937    N        0.38173    0.30932    0.32584    1.000
    Si1938   Si       0.37630    0.32528    0.24815    1.000
    Si1939   Si       0.45345    0.33007    0.24577    1.000
    N1940    N        0.33192    0.32739    0.38671    1.000
    N1941    N        0.26811    0.31810    0.48039    1.000
    Si1942   Si       0.28639    0.33304    0.39305    1.000
    Si1943   Si       0.35947    0.31713    0.48509    1.000
    N1944    N        0.40713    0.30669    0.39293    1.000
    Si1945   Si       0.47611    0.33966    0.44910    1.000
    N1946    N        0.48561    0.34290    0.49155    1.000
    Si1947   Si       0.40053    0.33705    0.42530    1.000
    N1948    N        0.43915    0.35864    0.43215    1.000
    N1949    N        0.36618    0.36220    0.44323    1.000
    Si1950   Si       0.27504    0.32088    0.52509    1.000
    N1951    N        0.27660    0.34747    0.60260    1.000
    N1952    N        0.35550    0.31559    0.57172    1.000
    Si1953   Si       0.24650    0.31449    0.59831    1.000
    N1954    N        0.35243    0.35186    0.50949    1.000
    Si1955   Si       0.35903    0.35536    0.55530    1.000
    N1956    N        0.24584    0.30556    0.55490    1.000
    Si1957   Si       0.36015    0.30534    0.61213    1.000
    N1958    N        0.43478    0.31712    0.53821    1.000
    Si1959   Si       0.47743    0.31590    0.52347    1.000
    N1960    N        0.44815    0.35504    0.59664    1.000
    Si1961   Si       0.48619    0.32691    0.60253    1.000
    Si1962   Si       0.43505    0.35787    0.55521    1.000
    N1963    N        0.34512    0.33966    0.63824    1.000
    Si1964   Si       0.30295    0.35431    0.63608    1.000
    N1965    N        0.28320    0.34202    0.67366    1.000
    N1966    N        0.31444    0.33530    0.74153    1.000
    Si1967   Si       0.30860    0.36340    0.70698    1.000
    Si1968   Si       0.48565    0.31831    0.68125    1.000
    Si1969   Si       0.41332    0.30576    0.65866    1.000
    N1970    N        0.41266    0.34855    0.66033    1.000
    N1971    N        0.47320    0.32991    0.72173    1.000
    N1972    N        0.27796    0.32770    0.79990    1.000
    N1973    N        0.34795    0.33233    0.80124    1.000
    Si1974   Si       0.25411    0.33236    0.83729    1.000
    Si1975   Si       0.34901    0.33237    0.84504    1.000
    Si1976   Si       0.31247    0.34750    0.78126    1.000
    N1977    N        0.31213    0.34693    0.86117    1.000
    N1978    N        0.25825    0.30189    0.86927    1.000
    Si1979   Si       0.37656    0.30540    0.78006    1.000
    N1980    N        0.41024    0.33245    0.76576    1.000
    N1981    N        0.38513    0.35178    0.85903    1.000
    Si1982   Si       0.44520    0.31226    0.75087    1.000
    N1983    N        0.26504    0.35238    0.91442    1.000
    Si1984   Si       0.26903    0.31033    0.91084    1.000
    N1985    N        0.24185    0.35706    0.98450    1.000
    N1986    N        0.47571    0.33381    0.97272    1.000
    N1987    N        0.37887    0.31370    0.91550    1.000
    Si1988   Si       0.48605    0.30709    0.89044    1.000
    N1989    N        0.39050    0.35291    0.97345    1.000
    Si1990   Si       0.38898    0.31376    0.95760    1.000
    Si1991   Si       0.40818    0.33389    0.89129    1.000
    N1992    N        0.44167    0.30492    0.89118    1.000
    N1993    N        0.35114    0.39519    0.01029    1.000
    Si1994   Si       0.31056    0.38829    0.00361    1.000
    N1995    N        0.28084    0.42038    0.01075    1.000
    N1996    N        0.28477    0.41309    0.09134    1.000
    N1997    N        0.36675    0.39434    0.08191    1.000
    N1998    N        0.48566    0.39455    0.02437    1.000
    Si1999   Si       0.44927    0.41238    0.03937    1.000
    Si2000   Si       0.40736    0.39469    0.09823    1.000
    N2001    N        0.40910    0.39665    0.03122    1.000
    N2002    N        0.44660    0.40837    0.08218    1.000
    Si2003   Si       0.38335    0.36697    0.01271    1.000
    Si2004   Si       0.47471    0.41437    0.11496    1.000
    N2005    N        0.24528    0.38770    0.23019    1.000
    Si2006   Si       0.33743    0.37819    0.22813    1.000
    N2007    N        0.26033    0.38896    0.16525    1.000
    Si2008   Si       0.28348    0.39423    0.12806    1.000
    N2009    N        0.32563    0.40230    0.13614    1.000
    N2010    N        0.36024    0.40394    0.20035    1.000
    Si2011   Si       0.24885    0.41413    0.19625    1.000
    N2012    N        0.39958    0.40983    0.13956    1.000
    Si2013   Si       0.47013    0.39328    0.18884    1.000
    Si2014   Si       0.36364    0.39409    0.15859    1.000
    N2015    N        0.47115    0.38283    0.14568    1.000
    Si2016   Si       0.32891    0.37748    0.29155    1.000
    N2017    N        0.30535    0.39190    0.25476    1.000
    Si2018   Si       0.24774    0.38638    0.35497    1.000
    N2019    N        0.35742    0.39860    0.31666    1.000
    N2020    N        0.25020    0.37999    0.31095    1.000
    N2021    N        0.49180    0.37829    0.32223    1.000
    Si2022   Si       0.37616    0.40323    0.35448    1.000
    N2023    N        0.42005    0.39727    0.32320    1.000
    Si2024   Si       0.45415    0.37790    0.34152    1.000
    Si2025   Si       0.39156    0.38716    0.28973    1.000
    N2026    N        0.41470    0.40838    0.25968    1.000
    N2027    N        0.26693    0.42272    0.37312    1.000
    N2028    N        0.33784    0.40253    0.37960    1.000
    N2029    N        0.25617    0.39990    0.46787    1.000
    N2030    N        0.31849    0.39588    0.47715    1.000
    Si2031   Si       0.29121    0.40316    0.44374    1.000
    Si2032   Si       0.35844    0.38285    0.48149    1.000
    N2033    N        0.29421    0.36848    0.41873    1.000
    Si2034   Si       0.34190    0.36629    0.40491    1.000
    N2035    N        0.38812    0.36712    0.37918    1.000
    N2036    N        0.47139    0.39316    0.37902    1.000
    Si2037   Si       0.46181    0.39433    0.42037    1.000
    Si2038   Si       0.48754    0.38755    0.49487    1.000
    N2039    N        0.38511    0.41625    0.49075    1.000
    Si2040   Si       0.28815    0.37926    0.57514    1.000
    N2041    N        0.33488    0.38010    0.57990    1.000
    Si2042   Si       0.34302    0.40922    0.61081    1.000
    Si2043   Si       0.28461    0.39363    0.50402    1.000
    N2044    N        0.28183    0.36309    0.53513    1.000
    N2045    N        0.26755    0.41809    0.58727    1.000
    N2046    N        0.45648    0.38707    0.52981    1.000
    N2047    N        0.39608    0.37638    0.55331    1.000
    Si2048   Si       0.39372    0.41811    0.53368    1.000
    N2049    N        0.27524    0.38670    0.71809    1.000
    N2050    N        0.30877    0.39686    0.63865    1.000
    N2051    N        0.34797    0.37821    0.69534    1.000
    Si2052   Si       0.25097    0.36918    0.68336    1.000
    N2053    N        0.24056    0.39750    0.65214    1.000
    Si2054   Si       0.27197    0.42004    0.63172    1.000
    Si2055   Si       0.37150    0.36563    0.65880    1.000
    N2056    N        0.45082    0.41017    0.64087    1.000
    N2057    N        0.37935    0.40209    0.63509    1.000
    Si2058   Si       0.44967    0.41435    0.71979    1.000
    Si2059   Si       0.37137    0.40709    0.71559    1.000
    Si2060   Si       0.48611    0.36624    0.74095    1.000
    N2061    N        0.41295    0.41012    0.69829    1.000
    Si2062   Si       0.44509    0.36640    0.63794    1.000
    N2063    N        0.31066    0.39125    0.77944    1.000
    N2064    N        0.24989    0.37364    0.85279    1.000
    N2065    N        0.35539    0.41525    0.84112    1.000
    Si2066   Si       0.27947    0.40821    0.75349    1.000
    N2067    N        0.41550    0.39257    0.81178    1.000
    Si2068   Si       0.39255    0.39401    0.84769    1.000
    Si2069   Si       0.41013    0.37466    0.77222    1.000
    Si2070   Si       0.45881    0.40529    0.80277    1.000
    N2071    N        0.45126    0.38924    0.75917    1.000
    N2072    N        0.47917    0.37446    0.82688    1.000
    N2073    N        0.37672    0.39515    0.75541    1.000
    N2074    N        0.24105    0.41345    0.95358    1.000
    N2075    N        0.30529    0.38396    0.95974    1.000
    Si2076   Si       0.26306    0.37527    0.95046    1.000
    N2077    N        0.29847    0.40997    0.89366    1.000
    Si2078   Si       0.28320    0.37244    0.87875    1.000
    Si2079   Si       0.32441    0.40726    0.92951    1.000
    Si2080   Si       0.46802    0.36120    0.93698    1.000
    N2081    N        0.36320    0.39154    0.92051    1.000
    N2082    N        0.47159    0.40131    0.95414    1.000
    N2083    N        0.42806    0.36314    0.91954    1.000
    Si2084   Si       0.39636    0.38353    0.94366    1.000
    N2085    N        0.32951    0.43959    0.05561    1.000
    Si2086   Si       0.28473    0.43353    0.05284    1.000
    N2087    N        0.34529    0.46275    0.11185    1.000
    N2088    N        0.25726    0.46827    0.05288    1.000
    Si2089   Si       0.33195    0.42491    0.09869    1.000
    Si2090   Si       0.48856    0.46678    0.01643    1.000
    N2091    N        0.38679    0.45933    0.05079    1.000
    N2092    N        0.44813    0.45079    0.01536    1.000
    Si2093   Si       0.36992    0.41862    0.04403    1.000
    Si2094   Si       0.41253    0.47666    0.02150    1.000
    N2095    N        0.28059    0.44021    0.21023    1.000
    N2096    N        0.33524    0.46994    0.18627    1.000
    Si2097   Si       0.35947    0.44586    0.21430    1.000
    N2098    N        0.46228    0.45104    0.13436    1.000
    Si2099   Si       0.42897    0.43850    0.23506    1.000
    Si2100   Si       0.47834    0.46386    0.20732    1.000
    N2101    N        0.44621    0.42920    0.19408    1.000
    Si2102   Si       0.42537    0.44122    0.15705    1.000
    N2103    N        0.39983    0.47696    0.15628    1.000
    N2104    N        0.39732    0.46421    0.22044    1.000
    N2105    N        0.26449    0.43965    0.28000    1.000
    N2106    N        0.33809    0.44793    0.25099    1.000
    Si2107   Si       0.29520    0.43461    0.25089    1.000
    Si2108   Si       0.24969    0.47624    0.29830    1.000
    Si2109   Si       0.36333    0.47298    0.34261    1.000
    N2110    N        0.26379    0.47935    0.34057    1.000
    N2111    N        0.45790    0.45866    0.32397    1.000
    Si2112   Si       0.41904    0.44099    0.32696    1.000
    N2113    N        0.39486    0.44057    0.36420    1.000
    N2114    N        0.39398    0.47049    0.30868    1.000
    N2115    N        0.46487    0.46169    0.24916    1.000
    N2116    N        0.32586    0.47329    0.37329    1.000
    Si2117   Si       0.24460    0.46014    0.37448    1.000
    Si2118   Si       0.30840    0.43480    0.38665    1.000
    N2119    N        0.30138    0.44159    0.42863    1.000
    N2120    N        0.34665    0.47324    0.49063    1.000
    N2121    N        0.44225    0.43238    0.42537    1.000
    N2122    N        0.47197    0.43270    0.49124    1.000
    Si2123   Si       0.45722    0.45632    0.45843    1.000
    N2124    N        0.37456    0.46377    0.42564    1.000
    Si2125   Si       0.37965    0.45601    0.46836    1.000
    Si2126   Si       0.41097    0.45562    0.40370    1.000
    Si2127   Si       0.25455    0.44373    0.55102    1.000
    N2128    N        0.32479    0.44846    0.60376    1.000
    N2129    N        0.28717    0.43199    0.52333    1.000
    Si2130   Si       0.34758    0.47016    0.57129    1.000
    Si2131   Si       0.30605    0.46796    0.50726    1.000
    N2132    N        0.35895    0.43511    0.55054    1.000
    N2133    N        0.42395    0.44619    0.54307    1.000
    Si2134   Si       0.46316    0.43017    0.53247    1.000
    N2135    N        0.48488    0.46739    0.61999    1.000
    N2136    N        0.27289    0.45847    0.65142    1.000
    N2137    N        0.35588    0.44783    0.71179    1.000
    N2138    N        0.29033    0.44953    0.74147    1.000
    Si2139   Si       0.33081    0.46147    0.74299    1.000
    Si2140   Si       0.30602    0.47831    0.63048    1.000
    N2141    N        0.45110    0.45620    0.73457    1.000
    Si2142   Si       0.41111    0.42237    0.65580    1.000
    Si2143   Si       0.36560    0.47659    0.68185    1.000
    Si2144   Si       0.48711    0.43151    0.64461    1.000
    N2145    N        0.40083    0.46512    0.65564    1.000
    N2146    N        0.29014    0.43806    0.82610    1.000
    N2147    N        0.34377    0.45550    0.78510    1.000
    Si2148   Si       0.25221    0.45133    0.80730    1.000
    Si2149   Si       0.29496    0.44514    0.86927    1.000
    Si2150   Si       0.32613    0.42110    0.80729    1.000
    N2151    N        0.24496    0.41961    0.77788    1.000
    N2152    N        0.44670    0.44982    0.80690    1.000
    Si2153   Si       0.43259    0.45900    0.84734    1.000
    Si2154   Si       0.44134    0.47648    0.77226    1.000
    N2155    N        0.41230    0.42764    0.86881    1.000
    Si2156   Si       0.37210    0.45036    0.86720    1.000
    N2157    N        0.39220    0.47604    0.83776    1.000
    N2158    N        0.32973    0.46771    0.87795    1.000
    N2159    N        0.33691    0.44663    0.94567    1.000
    Si2160   Si       0.24677    0.43365    0.99006    1.000
    Si2161   Si       0.33648    0.48216    0.91795    1.000
    N2162    N        0.44490    0.47412    0.94269    1.000
    Si2163   Si       0.44963    0.43795    0.96750    1.000
    N2164    N        0.40832    0.42032    0.96179    1.000
    Si2165   Si       0.38034    0.45403    0.95315    1.000
    N2166    N        0.38344    0.47517    0.91110    1.000
    N2167    N        0.31597    0.50645    0.06078    1.000
    Si2168   Si       0.27585    0.49966    0.07712    1.000
    N2169    N        0.27766    0.51412    0.11751    1.000
    N2170    N        0.23975    0.52740    0.07116    1.000
    Si2171   Si       0.35236    0.48011    0.07136    1.000
    N2172    N        0.44524    0.48896    0.08115    1.000
    N2173    N        0.38114    0.51813    0.08630    1.000
    Si2174   Si       0.42174    0.52143    0.06885    1.000
    N2175    N        0.41415    0.52202    0.02684    1.000
    Si2176   Si       0.47055    0.49018    0.11668    1.000
    Si2177   Si       0.36904    0.52364    0.00042    1.000
    N2178    N        0.25726    0.50113    0.18718    1.000
    N2179    N        0.34222    0.52386    0.14640    1.000
    Si2180   Si       0.35619    0.48423    0.14829    1.000
    N2181    N        0.30168    0.49451    0.24063    1.000
    Si2182   Si       0.29473    0.48024    0.19960    1.000
    N2183    N        0.39383    0.53095    0.19913    1.000
    N2184    N        0.46750    0.52960    0.13612    1.000
    Si2185   Si       0.41504    0.49459    0.19306    1.000
    Si2186   Si       0.47548    0.53752    0.17842    1.000
    N2187    N        0.45868    0.50014    0.19289    1.000
    Si2188   Si       0.30413    0.49774    0.34392    1.000
    N2189    N        0.25973    0.51894    0.29211    1.000
    Si2190   Si       0.33345    0.48827    0.26852    1.000
    N2191    N        0.33064    0.48612    0.31119    1.000
    N2192    N        0.36526    0.51626    0.26345    1.000
    N2193    N        0.43788    0.51658    0.28900    1.000
    Si2194   Si       0.39479    0.51250    0.29450    1.000
    N2195    N        0.37730    0.50724    0.36609    1.000
    Si2196   Si       0.46436    0.48145    0.28701    1.000
    N2197    N        0.31660    0.51032    0.42989    1.000
    Si2198   Si       0.35309    0.49688    0.40320    1.000
    N2199    N        0.28013    0.48639    0.48133    1.000
    Si2200   Si       0.28548    0.48163    0.43865    1.000
    N2201    N        0.25001    0.48137    0.41229    1.000
    N2202    N        0.43402    0.49404    0.40449    1.000
    Si2203   Si       0.47820    0.50095    0.40945    1.000
    N2204    N        0.37382    0.52980    0.42344    1.000
    Si2205   Si       0.42813    0.51679    0.48871    1.000
    Si2206   Si       0.41568    0.53178    0.41492    1.000
    N2207    N        0.48957    0.48374    0.44809    1.000
    N2208    N        0.41994    0.47574    0.47116    1.000
    Si2209   Si       0.28632    0.50964    0.56249    1.000
    N2210    N        0.28487    0.50807    0.60658    1.000
    N2211    N        0.32155    0.49284    0.54329    1.000
    Si2212   Si       0.35415    0.50834    0.51514    1.000
    N2213    N        0.25749    0.48679    0.54263    1.000
    Si2214   Si       0.24348    0.50388    0.50487    1.000
    Si2215   Si       0.36669    0.51314    0.61977    1.000
    N2216    N        0.38299    0.48733    0.58870    1.000
    N2217    N        0.45305    0.50636    0.56812    1.000
    N2218    N        0.39773    0.50737    0.52455    1.000
    N2219    N        0.46890    0.50659    0.50433    1.000
    Si2220   Si       0.41456    0.48751    0.55864    1.000
    Si2221   Si       0.46293    0.53358    0.53589    1.000
    Si2222   Si       0.25172    0.53001    0.62436    1.000
    N2223    N        0.33926    0.49474    0.65115    1.000
    N2224    N        0.26737    0.52334    0.72772    1.000
    N2225    N        0.33461    0.50439    0.74059    1.000
    Si2226   Si       0.30440    0.53714    0.74605    1.000
    Si2227   Si       0.26242    0.48227    0.74180    1.000
    N2228    N        0.39878    0.53607    0.64007    1.000
    N2229    N        0.45746    0.51314    0.66970    1.000
    Si2230   Si       0.37787    0.51731    0.74091    1.000
    Si2231   Si       0.41721    0.50541    0.66428    1.000
    N2232    N        0.39229    0.50658    0.69974    1.000
    N2233    N        0.25848    0.48803    0.78453    1.000
    Si2234   Si       0.25469    0.52838    0.79548    1.000
    N2235    N        0.35448    0.52561    0.80488    1.000
    N2236    N        0.24333    0.53197    0.83987    1.000
    Si2237   Si       0.36984    0.48652    0.80115    1.000
    N2238    N        0.40267    0.49377    0.76820    1.000
    N2239    N        0.48033    0.49477    0.77399    1.000
    Si2240   Si       0.49021    0.53553    0.76743    1.000
    N2241    N        0.24183    0.53186    0.90836    1.000
    Si2242   Si       0.27587    0.51079    0.89211    1.000
    N2243    N        0.29676    0.49804    0.92930    1.000
    N2244    N        0.32640    0.52645    0.98955    1.000
    Si2245   Si       0.31208    0.53518    0.94811    1.000
    N2246    N        0.26394    0.47493    0.87241    1.000
    N2247    N        0.41737    0.53272    0.91746    1.000
    Si2248   Si       0.48606    0.48822    0.94633    1.000
    N2249    N        0.44863    0.48875    0.87466    1.000
    Si2250   Si       0.42269    0.49009    0.90958    1.000
    N2251    N        0.38285    0.48188    0.98644    1.000
    N2252    N        0.28210    0.56667    0.03239    1.000
    N2253    N        0.32631    0.56908    0.09861    1.000
    N2254    N        0.35489    0.55247    0.03605    1.000
    Si2255   Si       0.24140    0.55587    0.03627    1.000
    Si2256   Si       0.36173    0.55440    0.07786    1.000
    Si2257   Si       0.31526    0.53852    0.02906    1.000
    N2258    N        0.38484    0.59188    0.09326    1.000
    Si2259   Si       0.47131    0.56024    0.10616    1.000
    N2260    N        0.43765    0.55945    0.08067    1.000
    Si2261   Si       0.42330    0.56420    0.00789    1.000
    Si2262   Si       0.42187    0.59728    0.06912    1.000
    N2263    N        0.41314    0.60128    0.02793    1.000
    Si2264   Si       0.25880    0.54432    0.18775    1.000
    N2265    N        0.33890    0.55976    0.21152    1.000
    N2266    N        0.28576    0.56368    0.16036    1.000
    Si2267   Si       0.30546    0.58347    0.22131    1.000
    N2268    N        0.27082    0.55983    0.22558    1.000
    Si2269   Si       0.36196    0.54919    0.17475    1.000
    Si2270   Si       0.30788    0.54341    0.12943    1.000
    N2271    N        0.46506    0.57601    0.19552    1.000
    Si2272   Si       0.37386    0.54717    0.23349    1.000
    N2273    N        0.37295    0.58578    0.15684    1.000
    Si2274   Si       0.48757    0.58660    0.23471    1.000
    N2275    N        0.47479    0.59662    0.13105    1.000
    Si2276   Si       0.31657    0.57858    0.36006    1.000
    N2277    N        0.25076    0.57952    0.29631    1.000
    Si2278   Si       0.25344    0.54796    0.26261    1.000
    Si2279   Si       0.25812    0.54680    0.32605    1.000
    N2280    N        0.35845    0.58213    0.37006    1.000
    N2281    N        0.29901    0.54106    0.34231    1.000
    N2282    N        0.31076    0.59918    0.26117    1.000
    N2283    N        0.48421    0.55383    0.26061    1.000
    N2284    N        0.38854    0.58205    0.25265    1.000
    Si2285   Si       0.38454    0.54860    0.35952    1.000
    Si2286   Si       0.46112    0.55404    0.29599    1.000
    N2287    N        0.38603    0.55000    0.31673    1.000
    Si2288   Si       0.39356    0.58826    0.29706    1.000
    N2289    N        0.48505    0.55370    0.33392    1.000
    N2290    N        0.43695    0.58929    0.30035    1.000
    N2291    N        0.29096    0.58491    0.39369    1.000
    N2292    N        0.34464    0.58972    0.44262    1.000
    Si2293   Si       0.24867    0.57787    0.39584    1.000
    Si2294   Si       0.34120    0.54378    0.44836    1.000
    N2295    N        0.34919    0.54539    0.49240    1.000
    Si2296   Si       0.24818    0.57347    0.46908    1.000
    N2297    N        0.43422    0.54270    0.45221    1.000
    Si2298   Si       0.46567    0.56517    0.37160    1.000
    N2299    N        0.42414    0.55365    0.37645    1.000
    Si2300   Si       0.43328    0.58448    0.46758    1.000
    N2301    N        0.28302    0.55333    0.56071    1.000
    Si2302   Si       0.25445    0.57454    0.53644    1.000
    Si2303   Si       0.30097    0.56211    0.59888    1.000
    N2304    N        0.34245    0.54244    0.59920    1.000
    Si2305   Si       0.35882    0.58433    0.50637    1.000
    N2306    N        0.24633    0.54833    0.50459    1.000
    Si2307   Si       0.36095    0.58142    0.58552    1.000
    N2308    N        0.43624    0.56000    0.51130    1.000
    N2309    N        0.37669    0.58055    0.54622    1.000
    Si2310   Si       0.41510    0.59282    0.52899    1.000
    N2311    N        0.39159    0.59669    0.61050    1.000
    N2312    N        0.26926    0.56882    0.62835    1.000
    N2313    N        0.32133    0.57177    0.73069    1.000
    N2314    N        0.34999    0.58307    0.66384    1.000
    Si2315   Si       0.47231    0.53858    0.70114    1.000
    Si2316   Si       0.39052    0.57781    0.65011    1.000
    N2317    N        0.48180    0.57421    0.67517    1.000
    N2318    N        0.38532    0.55823    0.74766    1.000
    N2319    N        0.45931    0.55019    0.73986    1.000
    Si2320   Si       0.26432    0.56606    0.85606    1.000
    N2321    N        0.28988    0.55121    0.78542    1.000
    Si2322   Si       0.35509    0.59017    0.75601    1.000
    Si2323   Si       0.29182    0.59511    0.79013    1.000
    Si2324   Si       0.38034    0.55683    0.81815    1.000
    N2325    N        0.42200    0.55917    0.80358    1.000
    Si2326   Si       0.45381    0.57919    0.82373    1.000
    Si2327   Si       0.42521    0.56810    0.76131    1.000
    N2328    N        0.37649    0.55482    0.86122    1.000
    N2329    N        0.44626    0.57761    0.86750    1.000
    N2330    N        0.48765    0.56178    0.80620    1.000
    N2331    N        0.36686    0.59366    0.80121    1.000
    N2332    N        0.29781    0.54224    0.87281    1.000
    Si2333   Si       0.33793    0.55845    0.88202    1.000
    N2334    N        0.28423    0.56781    0.94440    1.000
    Si2335   Si       0.24275    0.57409    0.92529    1.000
    N2336    N        0.34571    0.53905    0.92173    1.000
    N2337    N        0.46343    0.57106    0.99403    1.000
    N2338    N        0.39270    0.55066    0.97778    1.000
    N2339    N        0.39027    0.59074    0.91469    1.000
    N2340    N        0.48357    0.58812    0.92747    1.000
    Si2341   Si       0.41123    0.56425    0.88638    1.000
    Si2342   Si       0.38419    0.55397    0.93732    1.000
    N2343    N        0.26068    0.63312    0.05018    1.000
    N2344    N        0.32979    0.62155    0.05984    1.000
    Si2345   Si       0.29497    0.60786    0.03540    1.000
    Si2346   Si       0.34383    0.61017    0.10005    1.000
    N2347    N        0.36461    0.64699    0.00266    1.000
    N2348    N        0.44887    0.62766    0.07923    1.000
    Si2349   Si       0.48238    0.63193    0.10812    1.000
    Si2350   Si       0.40718    0.63597    0.00509    1.000
    N2351    N        0.37332    0.64750    0.11643    1.000
    N2352    N        0.31980    0.62529    0.13250    1.000
    Si2353   Si       0.28976    0.60697    0.15622    1.000
    N2354    N        0.25864    0.62846    0.13780    1.000
    N2355    N        0.29700    0.61889    0.19613    1.000
    Si2356   Si       0.46468    0.65596    0.22292    1.000
    N2357    N        0.42260    0.62882    0.15967    1.000
    Si2358   Si       0.39366    0.61133    0.13151    1.000
    Si2359   Si       0.46071    0.60908    0.16920    1.000
    N2360    N        0.48331    0.64193    0.18787    1.000
    N2361    N        0.46435    0.62052    0.24855    1.000
    Si2362   Si       0.28395    0.60995    0.29219    1.000
    N2363    N        0.30612    0.60865    0.32957    1.000
    N2364    N        0.26404    0.64803    0.28347    1.000
    Si2365   Si       0.31525    0.65033    0.33945    1.000
    Si2366   Si       0.37695    0.62180    0.36030    1.000
    Si2367   Si       0.44708    0.62988    0.28725    1.000
    N2368    N        0.38029    0.62315    0.31656    1.000
    N2369    N        0.47981    0.64701    0.31020    1.000
    N2370    N        0.41305    0.64426    0.37195    1.000
    N2371    N        0.34438    0.65001    0.37195    1.000
    Si2372   Si       0.25408    0.65302    0.42480    1.000
    Si2373   Si       0.30756    0.60559    0.42810    1.000
    N2374    N        0.29747    0.64698    0.42268    1.000
    N2375    N        0.36383    0.65246    0.43477    1.000
    Si2376   Si       0.29249    0.62793    0.49326    1.000
    N2377    N        0.28278    0.59880    0.46334    1.000
    N2378    N        0.46403    0.61565    0.47415    1.000
    N2379    N        0.39537    0.60166    0.48782    1.000
    Si2380   Si       0.37921    0.61561    0.44853    1.000
    N2381    N        0.47068    0.60712    0.37349    1.000
    N2382    N        0.41720    0.60443    0.42990    1.000
    Si2383   Si       0.44067    0.62688    0.39925    1.000
    N2384    N        0.26295    0.62637    0.59042    1.000
    Si2385   Si       0.30373    0.64076    0.59492    1.000
    N2386    N        0.26382    0.61523    0.52326    1.000
    N2387    N        0.33056    0.61672    0.51163    1.000
    N2388    N        0.32412    0.60244    0.58836    1.000
    Si2389   Si       0.33264    0.65385    0.52933    1.000
    Si2390   Si       0.48299    0.60947    0.55255    1.000
    Si2391   Si       0.42198    0.62468    0.59710    1.000
    N2392    N        0.43898    0.61063    0.56003    1.000
    Si2393   Si       0.48731    0.64800    0.61769    1.000
    Si2394   Si       0.24907    0.60727    0.62465    1.000
    N2395    N        0.30959    0.63859    0.70205    1.000
    N2396    N        0.25325    0.63003    0.66115    1.000
    Si2397   Si       0.33152    0.59884    0.69738    1.000
    Si2398   Si       0.30774    0.65327    0.74455    1.000
    N2399    N        0.36569    0.61747    0.72037    1.000
    N2400    N        0.47161    0.64350    0.69696    1.000
    Si2401   Si       0.45786    0.60994    0.66954    1.000
    Si2402   Si       0.40912    0.61976    0.71195    1.000
    N2403    N        0.41737    0.59676    0.67666    1.000
    N2404    N        0.45158    0.62514    0.62991    1.000
    Si2405   Si       0.30848    0.62526    0.85733    1.000
    Si2406   Si       0.35424    0.63564    0.80256    1.000
    N2407    N        0.32097    0.62474    0.77469    1.000
    N2408    N        0.25746    0.61068    0.76971    1.000
    N2409    N        0.33882    0.65136    0.83988    1.000
    N2410    N        0.28619    0.59696    0.83303    1.000
    Si2411   Si       0.42792    0.64017    0.78304    1.000
    N2412    N        0.44638    0.62135    0.81676    1.000
    N2413    N        0.42502    0.61017    0.75009    1.000
    Si2414   Si       0.45527    0.65723    0.84272    1.000
    Si2415   Si       0.24310    0.63859    0.89570    1.000
    N2416    N        0.33162    0.60039    0.88430    1.000
    Si2417   Si       0.29090    0.61023    0.95360    1.000
    N2418    N        0.25393    0.62011    0.93510    1.000
    N2419    N        0.33069    0.62718    0.94431    1.000
    Si2420   Si       0.32649    0.65173    0.98051    1.000
    Si2421   Si       0.35878    0.61855    0.91206    1.000
    N2422    N        0.28099    0.65330    0.87410    1.000
    N2423    N        0.29769    0.62256    0.99596    1.000
    N2424    N        0.43934    0.63251    0.97480    1.000
    N2425    N        0.45467    0.64527    0.88437    1.000
    Si2426   Si       0.47249    0.60432    0.88687    1.000
    Si2427   Si       0.47454    0.60472    0.96813    1.000
    N2428    N        0.28148    0.68628    0.09640    1.000
    N2429    N        0.25520    0.69654    0.02756    1.000
    Si2430   Si       0.28004    0.67205    0.05461    1.000
    N2431    N        0.31650    0.68191    0.03166    1.000
    Si2432   Si       0.34954    0.65621    0.04304    1.000
    N2433    N        0.36929    0.69089    0.06188    1.000
    Si2434   Si       0.38681    0.68720    0.10297    1.000
    N2435    N        0.42959    0.69675    0.08450    1.000
    N2436    N        0.42462    0.67315    0.02435    1.000
    Si2437   Si       0.45054    0.66609    0.05998    1.000
    Si2438   Si       0.40891    0.71260    0.04598    1.000
    Si2439   Si       0.44876    0.70380    0.12496    1.000
    N2440    N        0.34826    0.70340    0.12398    1.000
    N2441    N        0.29731    0.67879    0.15974    1.000
    Si2442   Si       0.34521    0.69268    0.21176    1.000
    N2443    N        0.30590    0.68364    0.22887    1.000
    Si2444   Si       0.26419    0.67092    0.13166    1.000
    Si2445   Si       0.33591    0.66452    0.14303    1.000
    Si2446   Si       0.28629    0.66116    0.19802    1.000
    N2447    N        0.24311    0.66437    0.20868    1.000
    Si2448   Si       0.27451    0.71256    0.24376    1.000
    N2449    N        0.36063    0.66508    0.18070    1.000
    Si2450   Si       0.40482    0.66560    0.17615    1.000
    N2451    N        0.41052    0.69904    0.14740    1.000
    N2452    N        0.42637    0.67194    0.21317    1.000
    N2453    N        0.36466    0.69027    0.25041    1.000
    N2454    N        0.47898    0.67121    0.12747    1.000
    N2455    N        0.49090    0.68218    0.24750    1.000
    N2456    N        0.27567    0.66834    0.34735    1.000
    Si2457   Si       0.32622    0.68917    0.27096    1.000
    N2458    N        0.33624    0.67194    0.30701    1.000
    Si2459   Si       0.24505    0.66590    0.31988    1.000
    N2460    N        0.39190    0.70109    0.33243    1.000
    Si2461   Si       0.38019    0.66590    0.30487    1.000
    N2462    N        0.45175    0.70066    0.36124    1.000
    N2463    N        0.41667    0.66076    0.28149    1.000
    Si2464   Si       0.41150    0.68776    0.36952    1.000
    Si2465   Si       0.40993    0.69197    0.24934    1.000
    N2466    N        0.24092    0.66921    0.46359    1.000
    Si2467   Si       0.28208    0.69994    0.37693    1.000
    N2468    N        0.24691    0.69266    0.40223    1.000
    N2469    N        0.31737    0.70888    0.40132    1.000
    Si2470   Si       0.26755    0.70022    0.48358    1.000
    Si2471   Si       0.33265    0.66859    0.40930    1.000
    N2472    N        0.30321    0.67128    0.49935    1.000
    N2473    N        0.46373    0.65895    0.41676    1.000
    Si2474   Si       0.45749    0.65894    0.46108    1.000
    Si2475   Si       0.38815    0.68763    0.44332    1.000
    N2476    N        0.48447    0.68646    0.48117    1.000
    Si2477   Si       0.48247    0.68935    0.39179    1.000
    N2478    N        0.39816    0.70718    0.40621    1.000
    N2479    N        0.41958    0.67509    0.47073    1.000
    N2480    N        0.31323    0.66942    0.56510    1.000
    N2481    N        0.36374    0.68208    0.52292    1.000
    Si2482   Si       0.31061    0.71464    0.57145    1.000
    N2483    N        0.24348    0.71198    0.51769    1.000
    Si2484   Si       0.33188    0.70938    0.49753    1.000
    N2485    N        0.48246    0.71850    0.54236    1.000
    N2486    N        0.47366    0.68766    0.60532    1.000
    Si2487   Si       0.42980    0.69761    0.60990    1.000
    Si2488   Si       0.39728    0.69662    0.50175    1.000
    N2489    N        0.40708    0.66433    0.59508    1.000
    N2490    N        0.31380    0.65499    0.63310    1.000
    N2491    N        0.34149    0.67780    0.73852    1.000
    N2492    N        0.35476    0.69101    0.67213    1.000
    N2493    N        0.28788    0.69960    0.66666    1.000
    Si2494   Si       0.32239    0.69707    0.64199    1.000
    Si2495   Si       0.35853    0.65861    0.70397    1.000
    Si2496   Si       0.28715    0.65418    0.66927    1.000
    Si2497   Si       0.39524    0.70481    0.68591    1.000
    N2498    N        0.40752    0.66426    0.70350    1.000
    Si2499   Si       0.44938    0.67386    0.71963    1.000
    N2500    N        0.42154    0.71001    0.65016    1.000
    N2501    N        0.27672    0.68153    0.75841    1.000
    Si2502   Si       0.35803    0.68014    0.87015    1.000
    N2503    N        0.36809    0.70977    0.83897    1.000
    N2504    N        0.49194    0.66791    0.82347    1.000
    Si2505   Si       0.39881    0.69868    0.80952    1.000
    N2506    N        0.43194    0.69220    0.83748    1.000
    N2507    N        0.45020    0.67263    0.76551    1.000
    N2508    N        0.38893    0.65999    0.79291    1.000
    Si2509   Si       0.48633    0.68887    0.78509    1.000
    Si2510   Si       0.29086    0.69676    0.87187    1.000
    N2511    N        0.30463    0.68674    0.96349    1.000
    N2512    N        0.32730    0.69893    0.89659    1.000
    Si2513   Si       0.32905    0.71020    0.93771    1.000
    Si2514   Si       0.28066    0.70751    0.99414    1.000
    N2515    N        0.36934    0.70818    0.95508    1.000
    Si2516   Si       0.39447    0.68982    0.92464    1.000
    N2517    N        0.37649    0.65516    0.90330    1.000
    N2518    N        0.43412    0.68657    0.94042    1.000
    Si2519   Si       0.46506    0.67815    0.90974    1.000
    Si2520   Si       0.44199    0.68543    0.98297    1.000
    N2521    N        0.48496    0.68735    0.98631    1.000
    N2522    N        0.46837    0.71745    0.88962    1.000
    N2523    N        0.31721    0.74243    0.07387    1.000
    N2524    N        0.30768    0.73874    0.00745    1.000
    Si2525   Si       0.33793    0.72104    0.03853    1.000
    Si2526   Si       0.30958    0.71766    0.10834    1.000
    N2527    N        0.24570    0.76976    0.02183    1.000
    N2528    N        0.37352    0.74125    0.02448    1.000
    N2529    N        0.42832    0.75436    0.05735    1.000
    Si2530   Si       0.44903    0.75774    0.01737    1.000
    Si2531   Si       0.45208    0.76962    0.09290    1.000
    Si2532   Si       0.30432    0.74495    0.17853    1.000
    N2533    N        0.27356    0.73654    0.20825    1.000
    N2534    N        0.29123    0.74560    0.13721    1.000
    N2535    N        0.34505    0.72811    0.18602    1.000
    Si2536   Si       0.36160    0.77073    0.18950    1.000
    N2537    N        0.47122    0.74221    0.12517    1.000
    N2538    N        0.38277    0.76317    0.15142    1.000
    Si2539   Si       0.37383    0.71982    0.15537    1.000
    N2540    N        0.27839    0.73693    0.35227    1.000
    Si2541   Si       0.29000    0.74854    0.31103    1.000
    N2542    N        0.24935    0.76285    0.29503    1.000
    N2543    N        0.29926    0.72166    0.27922    1.000
    Si2544   Si       0.46706    0.73071    0.33542    1.000
    Si2545   Si       0.39541    0.74638    0.32954    1.000
    N2546    N        0.43621    0.76103    0.32631    1.000
    N2547    N        0.37772    0.76221    0.29402    1.000
    N2548    N        0.38178    0.76475    0.36745    1.000
    Si2549   Si       0.40449    0.76743    0.25965    1.000
    N2550    N        0.42444    0.73040    0.25217    1.000
    Si2551   Si       0.31290    0.74166    0.42990    1.000
    N2552    N        0.35021    0.76184    0.42857    1.000
    N2553    N        0.30145    0.72432    0.46784    1.000
    Si2554   Si       0.26613    0.77079    0.37763    1.000
    N2555    N        0.48692    0.72244    0.42037    1.000
    N2556    N        0.47087    0.75666    0.48162    1.000
    N2557    N        0.41153    0.76532    0.44083    1.000
    Si2558   Si       0.39099    0.74924    0.40623    1.000
    Si2559   Si       0.37555    0.75878    0.46500    1.000
    N2560    N        0.36921    0.71518    0.47259    1.000
    N2561    N        0.32251    0.73572    0.53481    1.000
    N2562    N        0.27020    0.72277    0.58376    1.000
    N2563    N        0.33636    0.71949    0.60714    1.000
    Si2564   Si       0.24362    0.74887    0.60719    1.000
    Si2565   Si       0.37196    0.74426    0.60639    1.000
    N2566    N        0.41664    0.72978    0.52133    1.000
    N2567    N        0.41001    0.73088    0.59071    1.000
    Si2568   Si       0.40941    0.75593    0.55672    1.000
    Si2569   Si       0.45806    0.74584    0.52110    1.000
    N2570    N        0.48382    0.75711    0.60588    1.000
    N2571    N        0.24404    0.72938    0.71860    1.000
    Si2572   Si       0.26004    0.73012    0.67660    1.000
    N2573    N        0.31128    0.73842    0.72297    1.000
    Si2574   Si       0.34506    0.71954    0.73860    1.000
    N2575    N        0.27810    0.76985    0.66906    1.000
    N2576    N        0.45401    0.71432    0.70674    1.000
    N2577    N        0.41446    0.76697    0.68697    1.000
    N2578    N        0.38428    0.72557    0.72265    1.000
    Si2579   Si       0.41056    0.75934    0.72984    1.000
    Si2580   Si       0.44516    0.74040    0.66847    1.000
    Si2581   Si       0.47907    0.74843    0.71736    1.000
    N2582    N        0.48196    0.76353    0.67462    1.000
    N2583    N        0.45284    0.76840    0.74323    1.000
    Si2584   Si       0.25994    0.74476    0.82498    1.000
    N2585    N        0.27176    0.75098    0.78113    1.000
    N2586    N        0.34384    0.73185    0.78046    1.000
    Si2587   Si       0.33413    0.73015    0.82110    1.000
    N2588    N        0.29619    0.72032    0.83472    1.000
    N2589    N        0.36029    0.76911    0.82701    1.000
    Si2590   Si       0.27707    0.72281    0.74754    1.000
    Si2591   Si       0.37013    0.76736    0.78459    1.000
    N2592    N        0.40820    0.73527    0.78766    1.000
    Si2593   Si       0.44858    0.75304    0.78413    1.000
    N2594    N        0.41972    0.76283    0.85734    1.000
    Si2595   Si       0.37768    0.74795    0.86409    1.000
    N2596    N        0.47992    0.72930    0.79554    1.000
    Si2597   Si       0.43201    0.72324    0.86704    1.000
    N2598    N        0.31377    0.75039    0.93674    1.000
    N2599    N        0.25337    0.73121    0.96733    1.000
    Si2600   Si       0.27130    0.74678    0.93153    1.000
    N2601    N        0.26268    0.72185    0.89505    1.000
    N2602    N        0.48320    0.76793    0.92959    1.000
    Si2603   Si       0.38663    0.73754    0.98140    1.000
    N2604    N        0.39602    0.71629    0.89205    1.000
    N2605    N        0.42673    0.72890    0.99513    1.000
    N2606    N        0.31338    0.80184    0.03853    1.000
    Si2607   Si       0.32497    0.78486    0.07769    1.000
    N2608    N        0.30447    0.80573    0.11015    1.000
    Si2609   Si       0.28769    0.77652    0.01258    1.000
    N2610    N        0.36798    0.78581    0.08350    1.000
    N2611    N        0.40384    0.81192    0.02854    1.000
    N2612    N        0.42791    0.80077    0.11272    1.000
    Si2613   Si       0.44102    0.82938    0.01133    1.000
    Si2614   Si       0.39118    0.77534    0.04885    1.000
    Si2615   Si       0.38528    0.79559    0.12082    1.000
    N2616    N        0.26323    0.82819    0.20631    1.000
    Si2617   Si       0.30709    0.81420    0.21396    1.000
    N2618    N        0.32063    0.78374    0.18837    1.000
    Si2619   Si       0.26742    0.78284    0.12582    1.000
    Si2620   Si       0.37922    0.82565    0.23276    1.000
    N2621    N        0.48296    0.81992    0.21015    1.000
    N2622    N        0.38258    0.78284    0.22591    1.000
    N2623    N        0.26724    0.80834    0.35610    1.000
    Si2624   Si       0.35022    0.79604    0.30007    1.000
    Si2625   Si       0.31090    0.81919    0.34738    1.000
    N2626    N        0.31159    0.78527    0.31657    1.000
    N2627    N        0.29617    0.80357    0.25495    1.000
    Si2628   Si       0.25559    0.78992    0.25949    1.000
    N2629    N        0.24522    0.82509    0.28741    1.000
    Si2630   Si       0.24108    0.79765    0.32103    1.000
    N2631    N        0.36540    0.81786    0.33374    1.000
    N2632    N        0.37151    0.82580    0.27470    1.000
    N2633    N        0.43485    0.80094    0.26497    1.000
    Si2634   Si       0.44996    0.79811    0.30819    1.000
    N2635    N        0.42951    0.83271    0.32888    1.000
    N2636    N        0.32683    0.81790    0.38586    1.000
    Si2637   Si       0.30296    0.81466    0.42094    1.000
    Si2638   Si       0.34367    0.82147    0.48953    1.000
    N2639    N        0.31252    0.82968    0.46119    1.000
    N2640    N        0.28393    0.77540    0.41934    1.000
    Si2641   Si       0.24320    0.77364    0.43565    1.000
    N2642    N        0.36409    0.78272    0.49760    1.000
    N2643    N        0.47772    0.79336    0.42805    1.000
    N2644    N        0.43633    0.82902    0.45353    1.000
    Si2645   Si       0.44630    0.78579    0.45834    1.000
    Si2646   Si       0.36871    0.80604    0.37527    1.000
    N2647    N        0.39567    0.82877    0.39884    1.000
    N2648    N        0.32269    0.81290    0.52906    1.000
    N2649    N        0.24721    0.80435    0.54726    1.000
    Si2650   Si       0.28352    0.82638    0.53502    1.000
    N2651    N        0.24896    0.79179    0.61385    1.000
    Si2652   Si       0.24786    0.82503    0.58679    1.000
    Si2653   Si       0.34469    0.77384    0.53575    1.000
    N2654    N        0.44388    0.77957    0.54660    1.000
    Si2655   Si       0.37565    0.80867    0.59712    1.000
    Si2656   Si       0.44945    0.81872    0.56336    1.000
    N2657    N        0.48629    0.82341    0.58581    1.000
    N2658    N        0.41306    0.82853    0.58570    1.000
    N2659    N        0.37210    0.77491    0.56986    1.000
    Si2660   Si       0.35991    0.81283    0.74068    1.000
    Si2661   Si       0.25306    0.80244    0.65581    1.000
    N2662    N        0.34885    0.79334    0.69949    1.000
    N2663    N        0.28116    0.79993    0.72758    1.000
    Si2664   Si       0.30856    0.77609    0.70091    1.000
    N2665    N        0.47242    0.83348    0.65454    1.000
    Si2666   Si       0.38252    0.79198    0.67141    1.000
    N2667    N        0.37220    0.77961    0.63278    1.000
    Si2668   Si       0.35226    0.80429    0.85165    1.000
    Si2669   Si       0.29177    0.78889    0.76756    1.000
    N2670    N        0.33476    0.79298    0.77079    1.000
    N2671    N        0.31340    0.81972    0.84461    1.000
    N2672    N        0.25237    0.78135    0.84769    1.000
    Si2673   Si       0.26914    0.81798    0.83435    1.000
    N2674    N        0.26854    0.82108    0.79117    1.000
    Si2675   Si       0.45051    0.78930    0.84424    1.000
    N2676    N        0.44519    0.79156    0.80201    1.000
    Si2677   Si       0.43835    0.80857    0.75830    1.000
    N2678    N        0.39385    0.79082    0.75561    1.000
    N2679    N        0.44779    0.82843    0.86324    1.000
    N2680    N        0.32490    0.81935    0.92713    1.000
    Si2681   Si       0.28256    0.81526    0.93730    1.000
    N2682    N        0.25764    0.78457    0.91743    1.000
    N2683    N        0.28913    0.80873    0.97964    1.000
    Si2684   Si       0.34490    0.78045    0.92937    1.000
    N2685    N        0.35437    0.77588    0.88724    1.000
    N2686    N        0.44601    0.83265    0.93312    1.000
    N2687    N        0.45708    0.79373    0.99448    1.000
    Si2688   Si       0.46948    0.80019    0.95357    1.000
    N2689    N        0.37610    0.77345    0.95868    1.000
    N2690    N        0.29638    0.86531    0.03386    1.000
    N2691    N        0.32043    0.87834    0.09859    1.000
    Si2692   Si       0.32981    0.88078    0.05743    1.000
    Si2693   Si       0.25458    0.88108    0.02891    1.000
    Si2694   Si       0.31219    0.83298    0.00888    1.000
    N2695    N        0.37171    0.86615    0.04865    1.000
    N2696    N        0.43706    0.86394    0.08461    1.000
    N2697    N        0.47505    0.85101    0.02662    1.000
    Si2698   Si       0.47514    0.87477    0.06230    1.000
    Si2699   Si       0.38395    0.84621    0.01268    1.000
    Si2700   Si       0.40426    0.88634    0.07083    1.000
    Si2701   Si       0.44464    0.84015    0.12030    1.000
    Si2702   Si       0.32315    0.84370    0.12359    1.000
    Si2703   Si       0.25227    0.86410    0.22880    1.000
    N2704    N        0.31002    0.86414    0.16030    1.000
    Si2705   Si       0.26363    0.87154    0.15842    1.000
    N2706    N        0.34102    0.84103    0.21595    1.000
    Si2707   Si       0.33688    0.87660    0.19242    1.000
    N2708    N        0.24786    0.83428    0.14166    1.000
    N2709    N        0.36443    0.83207    0.13297    1.000
    Si2710   Si       0.45124    0.83094    0.23865    1.000
    N2711    N        0.48337    0.88036    0.19096    1.000
    N2712    N        0.42244    0.86005    0.15272    1.000
    Si2713   Si       0.38306    0.86883    0.13965    1.000
    Si2714   Si       0.41469    0.88087    0.19278    1.000
    N2715    N        0.48470    0.83436    0.13652    1.000
    N2716    N        0.41426    0.84779    0.22237    1.000
    N2717    N        0.30790    0.85350    0.31944    1.000
    N2718    N        0.28394    0.87194    0.25787    1.000
    Si2719   Si       0.28884    0.83717    0.28228    1.000
    N2720    N        0.41161    0.89270    0.36094    1.000
    N2721    N        0.47218    0.86164    0.26305    1.000
    Si2722   Si       0.39143    0.84273    0.30928    1.000
    N2723    N        0.37677    0.88318    0.30681    1.000
    Si2724   Si       0.48266    0.88173    0.29953    1.000
    Si2725   Si       0.42491    0.84988    0.36742    1.000
    Si2726   Si       0.24811    0.84149    0.37816    1.000
    N2727    N        0.27364    0.84487    0.41670    1.000
    Si2728   Si       0.27581    0.85538    0.45977    1.000
    N2729    N        0.46268    0.85175    0.38859    1.000
    N2730    N        0.38769    0.88758    0.42803    1.000
    N2731    N        0.37203    0.85380    0.47767    1.000
    Si2732   Si       0.39774    0.84383    0.43948    1.000
    Si2733   Si       0.47128    0.83581    0.42808    1.000
    Si2734   Si       0.31646    0.86372    0.59360    1.000
    N2735    N        0.35026    0.84058    0.60917    1.000
    N2736    N        0.28663    0.84038    0.57572    1.000
    N2737    N        0.26467    0.84729    0.50283    1.000
    Si2738   Si       0.41227    0.87114    0.59437    1.000
    N2739    N        0.45276    0.85115    0.53614    1.000
    N2740    N        0.44999    0.88249    0.61233    1.000
    Si2741   Si       0.42722    0.88576    0.52106    1.000
    Si2742   Si       0.48428    0.85554    0.61850    1.000
    Si2743   Si       0.49103    0.87069    0.52199    1.000
    N2744    N        0.30037    0.88555    0.62583    1.000
    N2745    N        0.33767    0.86848    0.67958    1.000
    Si2746   Si       0.29723    0.87335    0.66764    1.000
    N2747    N        0.26471    0.84427    0.66976    1.000
    Si2748   Si       0.34977    0.88581    0.71737    1.000
    Si2749   Si       0.36756    0.85806    0.64950    1.000
    N2750    N        0.43378    0.88960    0.67934    1.000
    Si2751   Si       0.46637    0.86290    0.73781    1.000
    N2752    N        0.44076    0.83311    0.71995    1.000
    N2753    N        0.38796    0.89039    0.62629    1.000
    N2754    N        0.39796    0.83271    0.66591    1.000
    Si2755   Si       0.43738    0.84481    0.67886    1.000
    Si2756   Si       0.31103    0.86321    0.84608    1.000
    N2757    N        0.26689    0.86250    0.84700    1.000
    Si2758   Si       0.24358    0.85368    0.77600    1.000
    N2759    N        0.32632    0.88656    0.81273    1.000
    Si2760   Si       0.35088    0.88644    0.77536    1.000
    N2761    N        0.36459    0.85566    0.74634    1.000
    N2762    N        0.43562    0.87431    0.81278    1.000
    Si2763   Si       0.41902    0.85723    0.85027    1.000
    Si2764   Si       0.47770    0.85828    0.80788    1.000
    N2765    N        0.47380    0.83607    0.77018    1.000
    N2766    N        0.37945    0.83749    0.85452    1.000
    N2767    N        0.31797    0.88746    0.95074    1.000
    Si2768   Si       0.27444    0.88324    0.95466    1.000
    N2769    N        0.32935    0.88256    0.88051    1.000
    N2770    N        0.26247    0.85207    0.92703    1.000
    Si2771   Si       0.34335    0.85230    0.94745    1.000
    N2772    N        0.24816    0.87117    0.98772    1.000
    N2773    N        0.34855    0.84235    0.98963    1.000
    Si2774   Si       0.37008    0.86766    0.88658    1.000
    Si2775   Si       0.41994    0.86517    0.94353    1.000
    N2776    N        0.48181    0.87791    0.89667    1.000
    N2777    N        0.38062    0.85954    0.92713    1.000
    Si2778   Si       0.47210    0.83590    0.89833    1.000
    N2779    N        0.41737    0.85695    0.98707    1.000
    N2780    N        0.40576    0.89105    0.87507    1.000
    N2781    N        0.33437    0.92103    0.04034    1.000
    N2782    N        0.26115    0.92370    0.03818    1.000
    Si2783   Si       0.29886    0.94099    0.05225    1.000
    N2784    N        0.38556    0.89773    0.10775    1.000
    Si2785   Si       0.37319    0.93346    0.02460    1.000
    N2786    N        0.40800    0.92341    0.04581    1.000
    N2787    N        0.47193    0.91832    0.06229    1.000
    Si2788   Si       0.44644    0.94103    0.03759    1.000
    N2789    N        0.25034    0.89055    0.19471    1.000
    Si2790   Si       0.30499    0.91237    0.12064    1.000
    N2791    N        0.32721    0.93246    0.15291    1.000
    N2792    N        0.32150    0.90899    0.21605    1.000
    N2793    N        0.26236    0.90523    0.13131    1.000
    N2794    N        0.37387    0.89183    0.17617    1.000
    Si2795   Si       0.47227    0.91927    0.17433    1.000
    N2796    N        0.47641    0.92413    0.13201    1.000
    N2797    N        0.43105    0.92180    0.19013    1.000
    Si2798   Si       0.36877    0.93651    0.16679    1.000
    N2799    N        0.32196    0.92096    0.29131    1.000
    N2800    N        0.34105    0.90373    0.36234    1.000
    Si2801   Si       0.30168    0.91065    0.25453    1.000
    Si2802   Si       0.32128    0.94209    0.37035    1.000
    N2803    N        0.26621    0.93279    0.25023    1.000
    Si2804   Si       0.33653    0.89078    0.31998    1.000
    N2805    N        0.44917    0.90841    0.30237    1.000
    Si2806   Si       0.41063    0.90677    0.32096    1.000
    Si2807   Si       0.45650    0.94337    0.27489    1.000
    N2808    N        0.48399    0.92728    0.24640    1.000
    N2809    N        0.27951    0.93173    0.37734    1.000
    Si2810   Si       0.24012    0.91344    0.38012    1.000
    N2811    N        0.28411    0.89869    0.45891    1.000
    Si2812   Si       0.30465    0.93249    0.47587    1.000
    N2813    N        0.34622    0.93116    0.46098    1.000
    Si2814   Si       0.37513    0.89866    0.46828    1.000
    N2815    N        0.37746    0.94564    0.39481    1.000
    Si2816   Si       0.37891    0.90344    0.38821    1.000
    Si2817   Si       0.47435    0.93419    0.47805    1.000
    N2818    N        0.46981    0.93255    0.43452    1.000
    Si2819   Si       0.31500    0.92839    0.54987    1.000
    N2820    N        0.29085    0.93867    0.51631    1.000
    N2821    N        0.24189    0.92441    0.61892    1.000
    N2822    N        0.32504    0.88902    0.55922    1.000
    N2823    N        0.39772    0.91235    0.50216    1.000
    Si2824   Si       0.39045    0.93233    0.54155    1.000
    N2825    N        0.40705    0.89522    0.56002    1.000
    N2826    N        0.46421    0.89887    0.50251    1.000
    Si2827   Si       0.28569    0.92444    0.62013    1.000
    N2828    N        0.27585    0.90436    0.69852    1.000
    Si2829   Si       0.28341    0.94755    0.68921    1.000
    Si2830   Si       0.27815    0.91017    0.74716    1.000
    N2831    N        0.37704    0.91829    0.71210    1.000
    Si2832   Si       0.42221    0.91683    0.71271    1.000
    Si2833   Si       0.42675    0.90671    0.63921    1.000
    N2834    N        0.43886    0.89550    0.74573    1.000
    Si2835   Si       0.31932    0.92885    0.82267    1.000
    N2836    N        0.28104    0.93077    0.83897    1.000
    Si2837   Si       0.25388    0.89781    0.82660    1.000
    N2838    N        0.34656    0.94356    0.85363    1.000
    N2839    N        0.25705    0.89354    0.78063    1.000
    N2840    N        0.32008    0.89928    0.74531    1.000
    Si2841   Si       0.42440    0.90751    0.78639    1.000
    N2842    N        0.38108    0.91687    0.78398    1.000
    Si2843   Si       0.48602    0.93509    0.77453    1.000
    N2844    N        0.29975    0.95079    0.90362    1.000
    Si2845   Si       0.33334    0.92505    0.89066    1.000
    Si2846   Si       0.34837    0.91904    0.95612    1.000
    N2847    N        0.25913    0.92412    0.94712    1.000
    N2848    N        0.48339    0.94750    0.89500    1.000
    N2849    N        0.36625    0.92866    0.91873    1.000
    N2850    N        0.43246    0.90916    0.93494    1.000
    N2851    N        0.38017    0.91841    0.98476    1.000
    Si2852   Si       0.40578    0.92425    0.90156    1.000
    Si2853   Si       0.42185    0.93133    0.97213    1.000
    Si2854   Si       0.47392    0.91402    0.91940    1.000
    N2855    N        0.45676    0.92744    0.99629    1.000
    N2856    N        0.29978    0.97606    0.02777    1.000
    Si2857   Si       0.28355    0.98367    0.11117    1.000
    Si2858   Si       0.33134    0.98233    0.99765    1.000
    N2859    N        0.29886    0.94718    0.09508    1.000
    Si2860   Si       0.26999    0.00443    0.04433    1.000
    Si2861   Si       0.47843    0.94816    0.09637    1.000
    N2862    N        0.36972    0.97598    0.01605    1.000
    Si2863   Si       0.40673    0.99596    0.00591    1.000
    N2864    N        0.43781    0.98459    0.03388    1.000
    N2865    N        0.44705    0.97852    0.10018    1.000
    N2866    N        0.31289    0.97873    0.21918    1.000
    N2867    N        0.30417    0.99634    0.14943    1.000
    Si2868   Si       0.30552    0.96558    0.17764    1.000
    N2869    N        0.26225    0.96412    0.18704    1.000
    Si2870   Si       0.35388    0.98728    0.23048    1.000
    Si2871   Si       0.27304    0.97473    0.23745    1.000
    N2872    N        0.43601    0.99065    0.18099    1.000
    Si2873   Si       0.42424    0.98530    0.13754    1.000
    Si2874   Si       0.41977    0.96068    0.20783    1.000
    Si2875   Si       0.47858    0.00857    0.19179    1.000
    N2876    N        0.39135    0.95989    0.13813    1.000
    N2877    N        0.37670    0.96273    0.20212    1.000
    N2878    N        0.32808    0.97121    0.33803    1.000
    Si2879   Si       0.32392    0.96654    0.29621    1.000
    N2880    N        0.28869    0.98809    0.28073    1.000
    N2881    N        0.35787    0.98010    0.27357    1.000
    Si2882   Si       0.40059    0.97630    0.28604    1.000
    Si2883   Si       0.46910    0.98513    0.34083    1.000
    N2884    N        0.46647    0.98006    0.29688    1.000
    Si2885   Si       0.39957    0.96391    0.36106    1.000
    N2886    N        0.42327    0.95846    0.25118    1.000
    N2887    N        0.44167    0.96858    0.36969    1.000
    N2888    N        0.38388    0.00386    0.36518    1.000
    N2889    N        0.39951    0.95043    0.32076    1.000
    Si2890   Si       0.27427    0.95673    0.41707    1.000
    N2891    N        0.31837    0.96858    0.40677    1.000
    Si2892   Si       0.35557    0.96158    0.42870    1.000
    N2893    N        0.27992    0.96669    0.46104    1.000
    N2894    N        0.26229    0.99783    0.40525    1.000
    N2895    N        0.36478    0.00379    0.43325    1.000
    N2896    N        0.45205    0.96756    0.49371    1.000
    Si2897   Si       0.43700    0.00254    0.47081    1.000
    N2898    N        0.42687    0.99009    0.43050    1.000
    Si2899   Si       0.45676    0.96793    0.40900    1.000
    Si2900   Si       0.30080    0.98778    0.59985    1.000
    Si2901   Si       0.33838    0.99435    0.53818    1.000
    Si2902   Si       0.25530    0.96113    0.51051    1.000
    N2903    N        0.35159    0.95289    0.54128    1.000
    N2904    N        0.26292    0.99822    0.61706    1.000
    N2905    N        0.33878    0.99693    0.61759    1.000
    N2906    N        0.24247    0.97377    0.55395    1.000
    Si2907   Si       0.24083    0.96600    0.59842    1.000
    N2908    N        0.33044    0.00164    0.49571    1.000
    N2909    N        0.29593    0.94850    0.58264    1.000
    N2910    N        0.46974    0.98790    0.60368    1.000
    Si2911   Si       0.42777    0.97487    0.59993    1.000
    Si2912   Si       0.45110    0.97608    0.53720    1.000
    N2913    N        0.41790    0.96038    0.55978    1.000
    Si2914   Si       0.33146    0.98616    0.65889    1.000
    N2915    N        0.25241    0.98071    0.68686    1.000
    N2916    N        0.31720    0.96042    0.71373    1.000
    Si2917   Si       0.35995    0.95752    0.71138    1.000
    N2918    N        0.30389    0.95164    0.65026    1.000
    N2919    N        0.46936    0.00597    0.73410    1.000
    Si2920   Si       0.41342    0.97771    0.66641    1.000
    N2921    N        0.43152    0.95662    0.70133    1.000
    N2922    N        0.42638    0.94918    0.63615    1.000
    Si2923   Si       0.47127    0.97273    0.70611    1.000
    N2924    N        0.36983    0.97789    0.67579    1.000
    Si2925   Si       0.30781    0.97172    0.75529    1.000
    N2926    N        0.26690    0.95533    0.75620    1.000
    N2927    N        0.27773    0.00479    0.86855    1.000
    N2928    N        0.32886    0.95656    0.78976    1.000
    Si2929   Si       0.23773    0.98604    0.77088    1.000
    N2930    N        0.25734    0.01215    0.80057    1.000
    Si2931   Si       0.37111    0.96107    0.78448    1.000
    Si2932   Si       0.37881    0.97258    0.85733    1.000
    N2933    N        0.39308    0.97780    0.81739    1.000
    Si2934   Si       0.43517    0.98249    0.80886    1.000
    N2935    N        0.46644    0.98368    0.84033    1.000
    N2936    N        0.36803    0.98223    0.74642    1.000
    N2937    N        0.44447    0.94518    0.78894    1.000
    N2938    N        0.35761    0.00791    0.87082    1.000
    Si2939   Si       0.27064    0.96102    0.87221    1.000
    Si2940   Si       0.28775    0.95623    0.94399    1.000
    N2941    N        0.26988    0.99459    0.95554    1.000
    N2942    N        0.32292    0.95202    0.96779    1.000
    N2943    N        0.41740    0.97595    0.96668    1.000
    Si2944   Si       0.45546    0.97702    0.88103    1.000
    N2945    N        0.41466    0.96110    0.88041    1.000
    N2946    N        0.45173    0.00856    0.91016    1.000
    N2947    N        0.57948    0.05036    0.04653    1.000
    N2948    N        0.53830    0.03723    0.10251    1.000
    Si2949   Si       0.54436    0.05541    0.02061    1.000
    Si2950   Si       0.51267    0.01632    0.07152    1.000
    N2951    N        0.52227    0.01905    0.02796    1.000
    N2952    N        0.60893    0.06384    0.10596    1.000
    Si2953   Si       0.60071    0.01131    0.04481    1.000
    Si2954   Si       0.56899    0.06518    0.08816    1.000
    Si2955   Si       0.71021    0.03249    0.03948    1.000
    N2956    N        0.67327    0.03513    0.01809    1.000
    N2957    N        0.70706    0.04468    0.08164    1.000
    Si2958   Si       0.62878    0.02761    0.11241    1.000
    Si2959   Si       0.70914    0.02353    0.11988    1.000
    N2960    N        0.56709    0.04838    0.16980    1.000
    Si2961   Si       0.53155    0.04167    0.14558    1.000
    Si2962   Si       0.58626    0.01252    0.18949    1.000
    N2963    N        0.51012    0.00588    0.16032    1.000
    N2964    N        0.68838    0.04162    0.20455    1.000
    N2965    N        0.72033    0.05663    0.14753    1.000
    N2966    N        0.66820    0.02509    0.13643    1.000
    Si2967   Si       0.68024    0.06236    0.16135    1.000
    Si2968   Si       0.71769    0.04536    0.23705    1.000
    Si2969   Si       0.65145    0.03081    0.22163    1.000
    N2970    N        0.64317    0.06955    0.23852    1.000
    N2971    N        0.62887    0.01218    0.18933    1.000
    Si2972   Si       0.56505    0.03005    0.26834    1.000
    N2973    N        0.60077    0.02853    0.29334    1.000
    Si2974   Si       0.57158    0.04404    0.36678    1.000
    N2975    N        0.53285    0.00951    0.28692    1.000
    Si2976   Si       0.49098    0.05645    0.36888    1.000
    N2977    N        0.69500    0.04652    0.27553    1.000
    N2978    N        0.70679    0.04051    0.36039    1.000
    N2979    N        0.59565    0.06428    0.39935    1.000
    N2980    N        0.52918    0.03506    0.36852    1.000
    Si2981   Si       0.49554    0.02798    0.43825    1.000
    Si2982   Si       0.60661    0.04910    0.44000    1.000
    N2983    N        0.53548    0.01989    0.45221    1.000
    Si2984   Si       0.54008    0.05632    0.47631    1.000
    Si2985   Si       0.68092    0.05094    0.39663    1.000
    Si2986   Si       0.67865    0.06817    0.46112    1.000
    N2987    N        0.71118    0.06476    0.42629    1.000
    N2988    N        0.67056    0.02996    0.47968    1.000
    N2989    N        0.64778    0.06411    0.43119    1.000
    N2990    N        0.58361    0.03335    0.55609    1.000
    Si2991   Si       0.54204    0.04562    0.55641    1.000
    N2992    N        0.52466    0.04519    0.51638    1.000
    N2993    N        0.51426    0.02167    0.57683    1.000
    Si2994   Si       0.61173    0.06586    0.56981    1.000
    N2995    N        0.61693    0.06439    0.61291    1.000
    N2996    N        0.71520    0.05754    0.53289    1.000
    N2997    N        0.64606    0.04970    0.54582    1.000
    N2998    N        0.72470    0.02084    0.58398    1.000
    Si2999   Si       0.65649    0.01744    0.51880    1.000
    Si3000   Si       0.72311    0.06422    0.59944    1.000
    Si3001   Si       0.72486    0.01616    0.54165    1.000
    N3002    N        0.54592    0.04321    0.69869    1.000
    N3003    N        0.51579    0.04635    0.63525    1.000
    Si3004   Si       0.51013    0.03633    0.67649    1.000
    N3005    N        0.61031    0.02267    0.70200    1.000
    N3006    N        0.72070    0.02992    0.70301    1.000
    N3007    N        0.65373    0.06473    0.73100    1.000
    N3008    N        0.73421    0.06055    0.64250    1.000
    N3009    N        0.66595    0.05390    0.66259    1.000
    Si3010   Si       0.70598    0.03530    0.66252    1.000
    Si3011   Si       0.63423    0.05735    0.69219    1.000
    N3012    N        0.51161    0.02056    0.79978    1.000
    Si3013   Si       0.55699    0.02201    0.78576    1.000
    N3014    N        0.51467    0.06425    0.85430    1.000
    Si3015   Si       0.51378    0.06583    0.81098    1.000
    N3016    N        0.58733    0.00945    0.81449    1.000
    N3017    N        0.63569    0.00339    0.76309    1.000
    Si3018   Si       0.66303    0.03892    0.76542    1.000
    Si3019   Si       0.68192    0.05414    0.83760    1.000
    N3020    N        0.71409    0.02828    0.82420    1.000
    N3021    N        0.65192    0.04201    0.86796    1.000
    N3022    N        0.65708    0.06104    0.80213    1.000
    N3023    N        0.70051    0.01633    0.76729    1.000
    N3024    N        0.57873    0.04419    0.87161    1.000
    Si3025   Si       0.54203    0.06186    0.88691    1.000
    N3026    N        0.60381    0.03178    0.94349    1.000
    N3027    N        0.52703    0.03750    0.92257    1.000
    Si3028   Si       0.55969    0.03785    0.95116    1.000
    N3029    N        0.67649    0.04490    0.94017    1.000
    Si3030   Si       0.63574    0.06076    0.94448    1.000
    N3031    N        0.54920    0.10572    0.08737    1.000
    N3032    N        0.51708    0.08547    0.03401    1.000
    Si3033   Si       0.54169    0.12090    0.04749    1.000
    Si3034   Si       0.51045    0.10468    0.11415    1.000
    N3035    N        0.57540    0.12430    0.02031    1.000
    N3036    N        0.66595    0.09294    0.04914    1.000
    Si3037   Si       0.69005    0.08466    0.08384    1.000
    N3038    N        0.72578    0.10860    0.07843    1.000
    Si3039   Si       0.66595    0.07723    0.00931    1.000
    N3040    N        0.67359    0.09505    0.12271    1.000
    N3041    N        0.58691    0.11149    0.14609    1.000
    Si3042   Si       0.59154    0.08297    0.17652    1.000
    N3043    N        0.50798    0.08942    0.22199    1.000
    N3044    N        0.58497    0.10676    0.21287    1.000
    Si3045   Si       0.54778    0.10205    0.23721    1.000
    N3046    N        0.51017    0.08009    0.14845    1.000
    N3047    N        0.63628    0.07853    0.17071    1.000
    Si3048   Si       0.73327    0.10527    0.20108    1.000
    Si3049   Si       0.62778    0.09885    0.12685    1.000
    Si3050   Si       0.65539    0.09934    0.20833    1.000
    N3051    N        0.69296    0.10451    0.18609    1.000
    Si3052   Si       0.69153    0.12629    0.14771    1.000
    Si3053   Si       0.56772    0.11609    0.34717    1.000
    N3054    N        0.57632    0.07494    0.33510    1.000
    N3055    N        0.56503    0.07412    0.26678    1.000
    N3056    N        0.49347    0.09989    0.35658    1.000
    Si3057   Si       0.59694    0.07315    0.29693    1.000
    N3058    N        0.49431    0.11562    0.28554    1.000
    Si3059   Si       0.64660    0.10975    0.33789    1.000
    N3060    N        0.63767    0.08248    0.30492    1.000
    N3061    N        0.68727    0.11536    0.25868    1.000
    Si3062   Si       0.66729    0.07929    0.27283    1.000
    Si3063   Si       0.70294    0.11236    0.36592    1.000
    N3064    N        0.73987    0.09484    0.35035    1.000
    N3065    N        0.51091    0.08888    0.46827    1.000
    Si3066   Si       0.58040    0.11069    0.48478    1.000
    N3067    N        0.55359    0.12336    0.38652    1.000
    N3068    N        0.57959    0.07063    0.46838    1.000
    N3069    N        0.62233    0.12391    0.48957    1.000
    N3070    N        0.66367    0.09267    0.37517    1.000
    Si3071   Si       0.71926    0.10945    0.43174    1.000
    N3072    N        0.68348    0.11259    0.45848    1.000
    Si3073   Si       0.63024    0.09141    0.40297    1.000
    N3074    N        0.61923    0.12776    0.41963    1.000
    N3075    N        0.54974    0.08270    0.57985    1.000
    N3076    N        0.60934    0.10775    0.55700    1.000
    N3077    N        0.50239    0.11198    0.61365    1.000
    Si3078   Si       0.56738    0.11719    0.56043    1.000
    N3079    N        0.55006    0.11320    0.51957    1.000
    Si3080   Si       0.50830    0.10938    0.50679    1.000
    N3081    N        0.67246    0.11457    0.53880    1.000
    Si3082   Si       0.67962    0.07494    0.55215    1.000
    N3083    N        0.68359    0.07634    0.59583    1.000
    N3084    N        0.74186    0.09917    0.57833    1.000
    Si3085   Si       0.53457    0.08380    0.62168    1.000
    N3086    N        0.55159    0.10316    0.65857    1.000
    N3087    N        0.60592    0.08924    0.69668    1.000
    N3088    N        0.54039    0.09691    0.73467    1.000
    Si3089   Si       0.56184    0.08238    0.69704    1.000
    Si3090   Si       0.49818    0.08313    0.73329    1.000
    Si3091   Si       0.63165    0.10384    0.73171    1.000
    Si3092   Si       0.65446    0.08022    0.62995    1.000
    N3093    N        0.65231    0.12120    0.64455    1.000
    Si3094   Si       0.56459    0.10249    0.77002    1.000
    N3095    N        0.50235    0.10853    0.80955    1.000
    N3096    N        0.60822    0.10456    0.76787    1.000
    N3097    N        0.55372    0.06618    0.79203    1.000
    N3098    N        0.61405    0.10012    0.84551    1.000
    Si3099   Si       0.70784    0.11231    0.80824    1.000
    Si3100   Si       0.63186    0.09955    0.80464    1.000
    N3101    N        0.70701    0.09209    0.84679    1.000
    N3102    N        0.72515    0.08552    0.77915    1.000
    N3103    N        0.54810    0.09956    0.90558    1.000
    Si3104   Si       0.59010    0.09923    0.98607    1.000
    N3105    N        0.56096    0.06797    0.98141    1.000
    Si3106   Si       0.70595    0.07775    0.94226    1.000
    N3107    N        0.69869    0.09393    0.98335    1.000
    Si3108   Si       0.61581    0.06835    0.87450    1.000
    Si3109   Si       0.73656    0.09990    0.87633    1.000
    N3110    N        0.63078    0.08163    0.98307    1.000
    N3111    N        0.71535    0.10984    0.91295    1.000
    N3112    N        0.62462    0.08875    0.91167    1.000
    N3113    N        0.50996    0.15110    0.05437    1.000
    Si3114   Si       0.50248    0.17412    0.02008    1.000
    Si3115   Si       0.59522    0.16393    0.01501    1.000
    Si3116   Si       0.57660    0.13393    0.10900    1.000
    N3117    N        0.56055    0.17280    0.11508    1.000
    N3118    N        0.61888    0.13139    0.09719    1.000
    N3119    N        0.67793    0.15906    0.07546    1.000
    Si3120   Si       0.64710    0.16346    0.10436    1.000
    N3121    N        0.71018    0.16508    0.02343    1.000
    Si3122   Si       0.71730    0.14930    0.06211    1.000
    N3123    N        0.63774    0.16249    0.00732    1.000
    Si3124   Si       0.66885    0.17630    0.03520    1.000
    N3125    N        0.49708    0.14418    0.12580    1.000
    N3126    N        0.58645    0.17882    0.20725    1.000
    N3127    N        0.51910    0.16723    0.17955    1.000
    Si3128   Si       0.60572    0.14389    0.22566    1.000
    Si3129   Si       0.54260    0.17723    0.21461    1.000
    N3130    N        0.54097    0.14494    0.24389    1.000
    N3131    N        0.73350    0.14538    0.21615    1.000
    N3132    N        0.65902    0.15531    0.14560    1.000
    Si3133   Si       0.68955    0.15150    0.23196    1.000
    Si3134   Si       0.65361    0.17722    0.18143    1.000
    Si3135   Si       0.73031    0.17444    0.18217    1.000
    N3136    N        0.72730    0.15136    0.14526    1.000
    N3137    N        0.64719    0.14355    0.21298    1.000
    Si3138   Si       0.52402    0.14732    0.28260    1.000
    N3139    N        0.55614    0.13826    0.30953    1.000
    Si3140   Si       0.59555    0.15342    0.30572    1.000
    N3141    N        0.51530    0.17188    0.36825    1.000
    N3142    N        0.61192    0.15066    0.26781    1.000
    N3143    N        0.61085    0.13490    0.34481    1.000
    Si3144   Si       0.61311    0.17456    0.36609    1.000
    N3145    N        0.68324    0.13712    0.33234    1.000
    Si3146   Si       0.70415    0.14014    0.29235    1.000
    N3147    N        0.69726    0.17390    0.26826    1.000
    Si3148   Si       0.67886    0.17968    0.34672    1.000
    Si3149   Si       0.57715    0.14284    0.41630    1.000
    Si3150   Si       0.52026    0.15458    0.45392    1.000
    N3151    N        0.55994    0.13889    0.45536    1.000
    Si3152   Si       0.51032    0.13025    0.38201    1.000
    N3153    N        0.49692    0.13352    0.42283    1.000
    N3154    N        0.49898    0.15199    0.49406    1.000
    N3155    N        0.58190    0.18227    0.39501    1.000
    Si3156   Si       0.64669    0.13584    0.45683    1.000
    Si3157   Si       0.72984    0.18030    0.39850    1.000
    N3158    N        0.65276    0.18235    0.37940    1.000
    N3159    N        0.65353    0.17839    0.45885    1.000
    N3160    N        0.71258    0.13865    0.40030    1.000
    N3161    N        0.55842    0.14840    0.58985    1.000
    Si3162   Si       0.51606    0.15150    0.60100    1.000
    Si3163   Si       0.58230    0.17700    0.61485    1.000
    Si3164   Si       0.49614    0.18477    0.52581    1.000
    N3165    N        0.49199    0.16449    0.56669    1.000
    Si3166   Si       0.63392    0.13297    0.53296    1.000
    N3167    N        0.69274    0.15774    0.60043    1.000
    N3168    N        0.63846    0.17526    0.53194    1.000
    N3169    N        0.62250    0.17895    0.59928    1.000
    Si3170   Si       0.73106    0.14254    0.58044    1.000
    Si3171   Si       0.65449    0.15844    0.61951    1.000
    Si3172   Si       0.52129    0.14596    0.73937    1.000
    N3173    N        0.58041    0.16883    0.65625    1.000
    Si3174   Si       0.54311    0.14511    0.66384    1.000
    N3175    N        0.54256    0.15781    0.70362    1.000
    N3176    N        0.51859    0.16991    0.63881    1.000
    N3177    N        0.71168    0.15166    0.67159    1.000
    Si3178   Si       0.66672    0.14645    0.67847    1.000
    N3179    N        0.65415    0.13698    0.71620    1.000
    N3180    N        0.73694    0.14694    0.74202    1.000
    Si3181   Si       0.71534    0.17149    0.63438    1.000
    N3182    N        0.65728    0.18458    0.65697    1.000
    Si3183   Si       0.52421    0.14633    0.81635    1.000
    N3184    N        0.54692    0.14413    0.77740    1.000
    Si3185   Si       0.59836    0.14221    0.84928    1.000
    N3186    N        0.55486    0.14164    0.84911    1.000
    Si3187   Si       0.57667    0.17580    0.78543    1.000
    N3188    N        0.49363    0.17641    0.82219    1.000
    N3189    N        0.61086    0.15959    0.81004    1.000
    N3190    N        0.49474    0.18123    0.75500    1.000
    N3191    N        0.72552    0.15130    0.81409    1.000
    Si3192   Si       0.65342    0.16784    0.80110    1.000
    Si3193   Si       0.72306    0.17236    0.77519    1.000
    N3194    N        0.66623    0.12599    0.80171    1.000
    N3195    N        0.49451    0.13375    0.87525    1.000
    N3196    N        0.51604    0.15834    0.98264    1.000
    Si3197   Si       0.53663    0.13803    0.88996    1.000
    N3198    N        0.54339    0.16682    0.92102    1.000
    Si3199   Si       0.55528    0.15760    0.96270    1.000
    N3200    N        0.59229    0.13212    0.95630    1.000
    N3201    N        0.74078    0.16051    0.95358    1.000
    N3202    N        0.61390    0.15714    0.88704    1.000
    Si3203   Si       0.65213    0.17534    0.96743    1.000
    N3204    N        0.71385    0.17472    0.88681    1.000
    N3205    N        0.66331    0.14981    0.93588    1.000
    Si3206   Si       0.70691    0.15150    0.92250    1.000
    Si3207   Si       0.62241    0.13108    0.92294    1.000
    N3208    N        0.51644    0.21424    0.02669    1.000
    Si3209   Si       0.55875    0.21717    0.02153    1.000
    Si3210   Si       0.58123    0.19904    0.08774    1.000
    N3211    N        0.56130    0.23831    0.08699    1.000
    N3212    N        0.57973    0.18884    0.04765    1.000
    N3213    N        0.62338    0.19998    0.09916    1.000
    N3214    N        0.65990    0.21621    0.04385    1.000
    Si3215   Si       0.64452    0.23279    0.08115    1.000
    N3216    N        0.72780    0.24824    0.06038    1.000
    N3217    N        0.50549    0.21737    0.12431    1.000
    N3218    N        0.48804    0.24784    0.17833    1.000
    N3219    N        0.53777    0.21590    0.23491    1.000
    N3220    N        0.55938    0.22401    0.16482    1.000
    Si3221   Si       0.59497    0.21859    0.18996    1.000
    Si3222   Si       0.53473    0.18835    0.14507    1.000
    N3223    N        0.63347    0.21399    0.17203    1.000
    Si3224   Si       0.69656    0.23264    0.21321    1.000
    N3225    N        0.69205    0.19023    0.19931    1.000
    N3226    N        0.73121    0.24675    0.23681    1.000
    Si3227   Si       0.50818    0.22112    0.26672    1.000
    N3228    N        0.59583    0.19245    0.32735    1.000
    N3229    N        0.50956    0.18737    0.29196    1.000
    Si3230   Si       0.49206    0.18525    0.33278    1.000
    Si3231   Si       0.62219    0.22563    0.32096    1.000
    N3232    N        0.65976    0.20477    0.31638    1.000
    Si3233   Si       0.68417    0.21439    0.28222    1.000
    N3234    N        0.71453    0.20124    0.36444    1.000
    N3235    N        0.71526    0.23856    0.30360    1.000
    Si3236   Si       0.72037    0.24165    0.34781    1.000
    N3237    N        0.66688    0.22956    0.24647    1.000
    N3238    N        0.54499    0.23863    0.37394    1.000
    N3239    N        0.52900    0.19378    0.43377    1.000
    Si3240   Si       0.51823    0.22566    0.45998    1.000
    Si3241   Si       0.54161    0.19921    0.39127    1.000
    N3242    N        0.64601    0.23598    0.41846    1.000
    Si3243   Si       0.65613    0.19905    0.49770    1.000
    N3244    N        0.63210    0.23519    0.49290    1.000
    Si3245   Si       0.71500    0.23185    0.46468    1.000
    N3246    N        0.71045    0.20348    0.43224    1.000
    Si3247   Si       0.66458    0.19618    0.42117    1.000
    N3248    N        0.60079    0.23193    0.55622    1.000
    N3249    N        0.51657    0.21810    0.50292    1.000
    N3250    N        0.56128    0.21557    0.61250    1.000
    Si3251   Si       0.57334    0.24531    0.58525    1.000
    Si3252   Si       0.63299    0.20441    0.56599    1.000
    N3253    N        0.66807    0.22904    0.57139    1.000
    N3254    N        0.69715    0.21721    0.50513    1.000
    N3255    N        0.73737    0.24431    0.55869    1.000
    Si3256   Si       0.68098    0.24007    0.61178    1.000
    Si3257   Si       0.69600    0.24515    0.54331    1.000
    Si3258   Si       0.60111    0.23202    0.73614    1.000
    Si3259   Si       0.53035    0.21197    0.64612    1.000
    Si3260   Si       0.57350    0.19067    0.69712    1.000
    N3261    N        0.54380    0.22275    0.68633    1.000
    N3262    N        0.49960    0.24196    0.63684    1.000
    N3263    N        0.58523    0.19444    0.74668    1.000
    N3264    N        0.61094    0.22218    0.69325    1.000
    Si3265   Si       0.64586    0.22358    0.66985    1.000
    Si3266   Si       0.72126    0.23271    0.67580    1.000
    N3267    N        0.71101    0.21659    0.63567    1.000
    N3268    N        0.73771    0.20741    0.70732    1.000
    Si3269   Si       0.53052    0.22188    0.83999    1.000
    N3270    N        0.55710    0.20042    0.81449    1.000
    N3271    N        0.50735    0.23966    0.80544    1.000
    Si3272   Si       0.66631    0.22527    0.78440    1.000
    N3273    N        0.65506    0.20669    0.82019    1.000
    N3274    N        0.68247    0.18611    0.76969    1.000
    N3275    N        0.63696    0.24333    0.75567    1.000
    Si3276   Si       0.66064    0.24211    0.84490    1.000
    N3277    N        0.51087    0.20404    0.87593    1.000
    N3278    N        0.58987    0.22782    0.90336    1.000
    Si3279   Si       0.52107    0.20437    0.91761    1.000
    Si3280   Si       0.58361    0.22235    0.94904    1.000
    N3281    N        0.54033    0.23319    0.94407    1.000
    N3282    N        0.57221    0.19159    0.98550    1.000
    N3283    N        0.71667    0.23858    0.92254    1.000
    N3284    N        0.68645    0.20214    0.97251    1.000
    N3285    N        0.65547    0.21835    0.88391    1.000
    Si3286   Si       0.62216    0.19803    0.90103    1.000
    Si3287   Si       0.69932    0.21757    0.88827    1.000
    N3288    N        0.62295    0.19716    0.94505    1.000
    Si3289   Si       0.72241    0.18421    0.98741    1.000
    Si3290   Si       0.58087    0.27105    0.06435    1.000
    N3291    N        0.56673    0.26085    0.02457    1.000
    N3292    N        0.50007    0.27015    0.06837    1.000
    Si3293   Si       0.52031    0.25136    0.10115    1.000
    Si3294   Si       0.48817    0.24615    0.03141    1.000
    N3295    N        0.62324    0.26801    0.07174    1.000
    Si3296   Si       0.70622    0.26929    0.09194    1.000
    Si3297   Si       0.64040    0.29582    0.10239    1.000
    Si3298   Si       0.73662    0.25624    0.01815    1.000
    N3299    N        0.67873    0.30051    0.08175    1.000
    N3300    N        0.67502    0.24319    0.11165    1.000
    N3301    N        0.73884    0.29159    0.11101    1.000
    N3302    N        0.59697    0.24812    0.22249    1.000
    N3303    N        0.53972    0.27971    0.20458    1.000
    Si3304   Si       0.55772    0.25945    0.24025    1.000
    N3305    N        0.53126    0.28087    0.13157    1.000
    Si3306   Si       0.52979    0.25691    0.16937    1.000
    N3307    N        0.64799    0.29765    0.23203    1.000
    N3308    N        0.63055    0.27768    0.14221    1.000
    Si3309   Si       0.63198    0.25819    0.24615    1.000
    Si3310   Si       0.65657    0.24373    0.15048    1.000
    N3311    N        0.68088    0.26012    0.18350    1.000
    N3312    N        0.52610    0.26092    0.27659    1.000
    N3313    N        0.57223    0.28503    0.32496    1.000
    N3314    N        0.50336    0.29184    0.33666    1.000
    Si3315   Si       0.60209    0.29111    0.29456    1.000
    Si3316   Si       0.50356    0.25281    0.36218    1.000
    Si3317   Si       0.57799    0.26737    0.36508    1.000
    Si3318   Si       0.53343    0.29346    0.30384    1.000
    N3319    N        0.57816    0.29563    0.25871    1.000
    N3320    N        0.61826    0.24830    0.35758    1.000
    N3321    N        0.62212    0.25456    0.28856    1.000
    N3322    N        0.69139    0.26981    0.36414    1.000
    Si3323   Si       0.73665    0.26335    0.27655    1.000
    N3324    N        0.52938    0.26548    0.44806    1.000
    Si3325   Si       0.56595    0.28380    0.46516    1.000
    N3326    N        0.60846    0.28198    0.45039    1.000
    Si3327   Si       0.49675    0.28262    0.42788    1.000
    N3328    N        0.57402    0.30118    0.39392    1.000
    N3329    N        0.73417    0.30209    0.49041    1.000
    Si3330   Si       0.65172    0.25844    0.38303    1.000
    N3331    N        0.68586    0.26566    0.46337    1.000
    Si3332   Si       0.64324    0.25651    0.45702    1.000
    Si3333   Si       0.69174    0.29904    0.49127    1.000
    N3334    N        0.64587    0.29975    0.39394    1.000
    N3335    N        0.58763    0.28303    0.60053    1.000
    Si3336   Si       0.50977    0.26832    0.60532    1.000
    N3337    N        0.53656    0.26451    0.56917    1.000
    Si3338   Si       0.60639    0.25480    0.52086    1.000
    Si3339   Si       0.53205    0.25495    0.52645    1.000
    N3340    N        0.56761    0.26325    0.50403    1.000
    N3341    N        0.61540    0.29807    0.52770    1.000
    N3342    N        0.68361    0.28363    0.53298    1.000
    N3343    N        0.70670    0.27917    0.61118    1.000
    N3344    N        0.50176    0.25908    0.73805    1.000
    Si3345   Si       0.53480    0.26046    0.70962    1.000
    N3346    N        0.52474    0.29511    0.68110    1.000
    N3347    N        0.56998    0.26116    0.73765    1.000
    N3348    N        0.59442    0.29789    0.66312    1.000
    N3349    N        0.64220    0.25064    0.63407    1.000
    Si3350   Si       0.62077    0.28793    0.62727    1.000
    Si3351   Si       0.67387    0.29048    0.69299    1.000
    N3352    N        0.63879    0.29582    0.71778    1.000
    N3353    N        0.68121    0.24907    0.68402    1.000
    Si3354   Si       0.50758    0.27335    0.78042    1.000
    N3355    N        0.55441    0.25785    0.85503    1.000
    N3356    N        0.54195    0.29508    0.79289    1.000
    Si3357   Si       0.57521    0.29588    0.76420    1.000
    Si3358   Si       0.54433    0.29731    0.83524    1.000
    N3359    N        0.61212    0.29892    0.78406    1.000
    N3360    N        0.62161    0.26642    0.84806    1.000
    N3361    N        0.67305    0.26534    0.80198    1.000
    Si3362   Si       0.64893    0.28558    0.76314    1.000
    Si3363   Si       0.73730    0.27301    0.84426    1.000
    N3364    N        0.70504    0.24370    0.85428    1.000
    N3365    N        0.53838    0.29785    0.97018    1.000
    N3366    N        0.60096    0.29516    0.90801    1.000
    Si3367   Si       0.57349    0.28648    0.99231    1.000
    Si3368   Si       0.58977    0.26449    0.87858    1.000
    Si3369   Si       0.51279    0.26441    0.95652    1.000
    N3370    N        0.59880    0.25931    0.96831    1.000
    N3371    N        0.71187    0.28003    0.99094    1.000
    Si3372   Si       0.62416    0.28050    0.94180    1.000
    N3373    N        0.66435    0.26780    0.95490    1.000
    Si3374   Si       0.69981    0.24180    0.96213    1.000
    N3375    N        0.51808    0.32300    0.02952    1.000
    Si3376   Si       0.55885    0.33727    0.04385    1.000
    N3377    N        0.58717    0.32557    0.01262    1.000
    N3378    N        0.56635    0.30966    0.07984    1.000
    N3379    N        0.53715    0.35586    0.12027    1.000
    Si3380   Si       0.55772    0.31790    0.12218    1.000
    Si3381   Si       0.68024    0.33400    0.05502    1.000
    N3382    N        0.66251    0.32460    0.01519    1.000
    N3383    N        0.72036    0.34764    0.06322    1.000
    N3384    N        0.62344    0.33380    0.11273    1.000
    Si3385   Si       0.62615    0.34126    0.99927    1.000
    Si3386   Si       0.73848    0.33231    0.09931    1.000
    Si3387   Si       0.49549    0.34958    0.13167    1.000
    N3388    N        0.54355    0.34909    0.22375    1.000
    N3389    N        0.57525    0.32033    0.16205    1.000
    Si3390   Si       0.54150    0.32187    0.19044    1.000
    N3391    N        0.50199    0.32974    0.17190    1.000
    Si3392   Si       0.73358    0.35428    0.18686    1.000
    N3393    N        0.71118    0.31714    0.20284    1.000
    Si3394   Si       0.61715    0.31915    0.15355    1.000
    N3395    N        0.65230    0.33380    0.17469    1.000
    Si3396   Si       0.67270    0.30003    0.19472    1.000
    N3397    N        0.54753    0.33998    0.29531    1.000
    Si3398   Si       0.57307    0.33934    0.25565    1.000
    N3399    N        0.60376    0.35580    0.35400    1.000
    N3400    N        0.53792    0.35824    0.36043    1.000
    N3401    N        0.62570    0.32731    0.29300    1.000
    Si3402   Si       0.64175    0.33707    0.25136    1.000
    N3403    N        0.67627    0.33429    0.33555    1.000
    Si3404   Si       0.69981    0.33307    0.29770    1.000
    N3405    N        0.68052    0.35297    0.26128    1.000
    Si3406   Si       0.63717    0.35348    0.32477    1.000
    N3407    N        0.72098    0.30330    0.27791    1.000
    Si3408   Si       0.61030    0.31014    0.41690    1.000
    Si3409   Si       0.54177    0.33196    0.39342    1.000
    N3410    N        0.50632    0.32365    0.41850    1.000
    N3411    N        0.56698    0.32769    0.47509    1.000
    Si3412   Si       0.58434    0.36402    0.45736    1.000
    N3413    N        0.61523    0.36142    0.49240    1.000
    Si3414   Si       0.68201    0.31283    0.37197    1.000
    N3415    N        0.67390    0.33496    0.47446    1.000
    N3416    N        0.69263    0.34489    0.40256    1.000
    Si3417   Si       0.73276    0.35860    0.39085    1.000
    Si3418   Si       0.66412    0.35381    0.43344    1.000
    N3419    N        0.62034    0.35080    0.42780    1.000
    N3420    N        0.56357    0.33525    0.54891    1.000
    Si3421   Si       0.59051    0.33098    0.51364    1.000
    N3422    N        0.49761    0.33342    0.55984    1.000
    N3423    N        0.52748    0.30863    0.61256    1.000
    Si3424   Si       0.55702    0.30675    0.58029    1.000
    N3425    N        0.65101    0.35106    0.54381    1.000
    N3426    N        0.70693    0.35139    0.61576    1.000
    Si3427   Si       0.65114    0.30884    0.55187    1.000
    Si3428   Si       0.68438    0.31462    0.62044    1.000
    N3429    N        0.64772    0.31025    0.59661    1.000
    N3430    N        0.57450    0.32810    0.73448    1.000
    N3431    N        0.55484    0.35085    0.65379    1.000
    Si3432   Si       0.60505    0.31619    0.70122    1.000
    Si3433   Si       0.55229    0.30771    0.65179    1.000
    N3434    N        0.48613    0.34773    0.64615    1.000
    Si3435   Si       0.70376    0.33889    0.73736    1.000
    Si3436   Si       0.65781    0.35951    0.67651    1.000
    N3437    N        0.71099    0.30562    0.70822    1.000
    N3438    N        0.66392    0.31886    0.65920    1.000
    N3439    N        0.61800    0.35790    0.69481    1.000
    N3440    N        0.57992    0.32018    0.84531    1.000
    N3441    N        0.50999    0.31268    0.85603    1.000
    Si3442   Si       0.50204    0.35636    0.85837    1.000
    Si3443   Si       0.57508    0.36131    0.86100    1.000
    N3444    N        0.67998    0.32298    0.77113    1.000
    N3445    N        0.65182    0.32710    0.83515    1.000
    N3446    N        0.71879    0.31026    0.83613    1.000
    Si3447   Si       0.68254    0.30766    0.81219    1.000
    Si3448   Si       0.61641    0.30529    0.82629    1.000
    Si3449   Si       0.51695    0.33393    0.98480    1.000
    N3450    N        0.49199    0.35007    0.90182    1.000
    N3451    N        0.58030    0.36136    0.90583    1.000
    N3452    N        0.64903    0.35368    0.89814    1.000
    Si3453   Si       0.73595    0.30995    0.96973    1.000
    Si3454   Si       0.67431    0.30427    0.97668    1.000
    N3455    N        0.70027    0.32857    0.95043    1.000
    N3456    N        0.62853    0.32185    0.95800    1.000
    Si3457   Si       0.61488    0.33794    0.91849    1.000
    N3458    N        0.54999    0.37765    0.05438    1.000
    Si3459   Si       0.55201    0.38896    0.09700    1.000
    N3460    N        0.59550    0.39532    0.10455    1.000
    Si3461   Si       0.52622    0.40815    0.03091    1.000
    N3462    N        0.51691    0.41635    0.10347    1.000
    Si3463   Si       0.66130    0.40072    0.03144    1.000
    N3464    N        0.70214    0.40000    0.01193    1.000
    Si3465   Si       0.63421    0.37531    0.10054    1.000
    Si3466   Si       0.72791    0.38887    0.04606    1.000
    N3467    N        0.65703    0.37133    0.06328    1.000
    N3468    N        0.71490    0.41463    0.07776    1.000
    N3469    N        0.63477    0.38382    0.00076    1.000
    Si3470   Si       0.70962    0.39980    0.11799    1.000
    Si3471   Si       0.53641    0.39106    0.22738    1.000
    N3472    N        0.50965    0.40915    0.19835    1.000
    Si3473   Si       0.60762    0.40154    0.22274    1.000
    N3474    N        0.56860    0.41593    0.21580    1.000
    N3475    N        0.60819    0.36209    0.24205    1.000
    N3476    N        0.66623    0.38899    0.12723    1.000
    N3477    N        0.73122    0.36209    0.12941    1.000
    Si3478   Si       0.66294    0.37648    0.16973    1.000
    N3479    N        0.63349    0.40228    0.18820    1.000
    N3480    N        0.70182    0.38454    0.18499    1.000
    N3481    N        0.71408    0.41782    0.23947    1.000
    Si3482   Si       0.51240    0.39575    0.35986    1.000
    N3483    N        0.57808    0.40096    0.30784    1.000
    N3484    N        0.52471    0.39837    0.26856    1.000
    Si3485   Si       0.51031    0.36004    0.28830    1.000
    Si3486   Si       0.56664    0.36238    0.32884    1.000
    Si3487   Si       0.61454    0.41848    0.29325    1.000
    Si3488   Si       0.71608    0.37837    0.25682    1.000
    N3489    N        0.64758    0.39355    0.31066    1.000
    N3490    N        0.72752    0.36779    0.29883    1.000
    Si3491   Si       0.59604    0.37023    0.39441    1.000
    N3492    N        0.52741    0.41760    0.39721    1.000
    N3493    N        0.49449    0.38532    0.44869    1.000
    N3494    N        0.56388    0.40456    0.46444    1.000
    Si3495   Si       0.53398    0.39495    0.43327    1.000
    N3496    N        0.61008    0.41134    0.39875    1.000
    N3497    N        0.56157    0.36300    0.41883    1.000
    N3498    N        0.73559    0.40366    0.46379    1.000
    N3499    N        0.66827    0.39894    0.43858    1.000
    N3500    N        0.73682    0.40137    0.38332    1.000
    N3501    N        0.53867    0.38438    0.59156    1.000
    N3502    N        0.52222    0.39329    0.52171    1.000
    Si3503   Si       0.57172    0.41331    0.58434    1.000
    N3504    N        0.61174    0.39888    0.59348    1.000
    Si3505   Si       0.52936    0.36357    0.55449    1.000
    N3506    N        0.68070    0.40159    0.57771    1.000
    Si3507   Si       0.64075    0.38645    0.56537    1.000
    N3508    N        0.69106    0.39347    0.50598    1.000
    Si3509   Si       0.69520    0.39288    0.61782    1.000
    Si3510   Si       0.73566    0.39519    0.50561    1.000
    Si3511   Si       0.65742    0.36715    0.50232    1.000
    N3512    N        0.64043    0.41626    0.53370    1.000
    N3513    N        0.55804    0.39160    0.71369    1.000
    Si3514   Si       0.52484    0.37230    0.63221    1.000
    N3515    N        0.59330    0.40956    0.65782    1.000
    Si3516   Si       0.58006    0.37602    0.68089    1.000
    N3517    N        0.52580    0.41202    0.65472    1.000
    N3518    N        0.48822    0.39569    0.70959    1.000
    N3519    N        0.67559    0.36417    0.71632    1.000
    N3520    N        0.73439    0.37171    0.73562    1.000
    Si3521   Si       0.69702    0.40336    0.73753    1.000
    N3522    N        0.66060    0.39016    0.64484    1.000
    Si3523   Si       0.63594    0.37762    0.73081    1.000
    Si3524   Si       0.62818    0.41627    0.63202    1.000
    N3525    N        0.65486    0.41573    0.74037    1.000
    Si3526   Si       0.52510    0.38967    0.80329    1.000
    Si3527   Si       0.60435    0.39827    0.80064    1.000
    N3528    N        0.53916    0.37593    0.84327    1.000
    N3529    N        0.56360    0.40638    0.78628    1.000
    N3530    N        0.60986    0.37408    0.76365    1.000
    N3531    N        0.60856    0.38010    0.84010    1.000
    N3532    N        0.52104    0.36267    0.76488    1.000
    Si3533   Si       0.56460    0.36885    0.75085    1.000
    N3534    N        0.67238    0.40103    0.85201    1.000
    Si3535   Si       0.71438    0.39558    0.86374    1.000
    N3536    N        0.72830    0.38385    0.82405    1.000
    Si3537   Si       0.64771    0.36578    0.85466    1.000
    Si3538   Si       0.56325    0.38781    0.93777    1.000
    N3539    N        0.59738    0.41069    0.95346    1.000
    N3540    N        0.53534    0.36678    0.96384    1.000
    Si3541   Si       0.51308    0.41561    0.96413    1.000
    N3542    N        0.53525    0.41943    0.92645    1.000
    Si3543   Si       0.68564    0.35972    0.92268    1.000
    N3544    N        0.67518    0.39503    0.94682    1.000
    Si3545   Si       0.70946    0.41125    0.97015    1.000
    Si3546   Si       0.63832    0.40751    0.96529    1.000
    N3547    N        0.72067    0.36639    0.89497    1.000
    N3548    N        0.57216    0.45515    0.08357    1.000
    Si3549   Si       0.53126    0.45340    0.08525    1.000
    N3550    N        0.51739    0.44874    0.04329    1.000
    N3551    N        0.59714    0.46771    0.01676    1.000
    Si3552   Si       0.59006    0.43630    0.11966    1.000
    N3553    N        0.54729    0.42005    0.99501    1.000
    Si3554   Si       0.69532    0.45393    0.07066    1.000
    N3555    N        0.66126    0.44238    0.04409    1.000
    Si3556   Si       0.64041    0.46671    0.01617    1.000
    N3557    N        0.68312    0.47432    0.10598    1.000
    Si3558   Si       0.54307    0.43909    0.18783    1.000
    N3559    N        0.56144    0.44045    0.15065    1.000
    N3560    N        0.51957    0.47432    0.19584    1.000
    N3561    N        0.68495    0.48029    0.24004    1.000
    N3562    N        0.62561    0.45387    0.13376    1.000
    N3563    N        0.62757    0.47638    0.19888    1.000
    N3564    N        0.68312    0.44685    0.17637    1.000
    N3565    N        0.73014    0.43319    0.13689    1.000
    Si3566   Si       0.64250    0.46988    0.24068    1.000
    Si3567   Si       0.64126    0.44370    0.17329    1.000
    Si3568   Si       0.71521    0.42418    0.19638    1.000
    Si3569   Si       0.70420    0.47014    0.14434    1.000
    N3570    N        0.56213    0.46866    0.29542    1.000
    N3571    N        0.52082    0.43293    0.33415    1.000
    Si3572   Si       0.49698    0.46852    0.33869    1.000
    Si3573   Si       0.58957    0.47347    0.33009    1.000
    Si3574   Si       0.54433    0.42753    0.29737    1.000
    N3575    N        0.57469    0.46622    0.36959    1.000
    N3576    N        0.62459    0.45032    0.32143    1.000
    N3577    N        0.69237    0.45021    0.29937    1.000
    Si3578   Si       0.71484    0.45449    0.26179    1.000
    N3579    N        0.62352    0.43139    0.25281    1.000
    Si3580   Si       0.66341    0.43043    0.32652    1.000
    N3581    N        0.72212    0.47369    0.36159    1.000
    N3582    N        0.67228    0.42514    0.36832    1.000
    Si3583   Si       0.53843    0.45938    0.39164    1.000
    N3584    N        0.56367    0.46279    0.43039    1.000
    Si3585   Si       0.56799    0.44893    0.47216    1.000
    N3586    N        0.60467    0.46054    0.49028    1.000
    Si3587   Si       0.59811    0.45228    0.40397    1.000
    N3588    N        0.53437    0.46242    0.49236    1.000
    N3589    N        0.67627    0.45584    0.48487    1.000
    N3590    N        0.70735    0.44838    0.42397    1.000
    Si3591   Si       0.63882    0.46886    0.46742    1.000
    Si3592   Si       0.69651    0.42289    0.46169    1.000
    Si3593   Si       0.71311    0.43690    0.38342    1.000
    N3594    N        0.63830    0.46518    0.42175    1.000
    Si3595   Si       0.65174    0.42369    0.40709    1.000
    N3596    N        0.56780    0.45146    0.60837    1.000
    Si3597   Si       0.53119    0.43645    0.52758    1.000
    Si3598   Si       0.60932    0.44836    0.53153    1.000
    N3599    N        0.57091    0.43184    0.54575    1.000
    N3600    N        0.49572    0.45116    0.55196    1.000
    Si3601   Si       0.60095    0.47753    0.59834    1.000
    Si3602   Si       0.68716    0.42204    0.54032    1.000
    N3603    N        0.68870    0.46800    0.54579    1.000
    Si3604   Si       0.73476    0.46773    0.55833    1.000
    N3605    N        0.73560    0.42396    0.53952    1.000
    N3606    N        0.62072    0.48061    0.55945    1.000
    Si3607   Si       0.56103    0.43783    0.64884    1.000
    N3608    N        0.52555    0.44853    0.73712    1.000
    N3609    N        0.56431    0.46352    0.68382    1.000
    N3610    N        0.49357    0.45553    0.68243    1.000
    Si3611   Si       0.49112    0.47296    0.72404    1.000
    Si3612   Si       0.52362    0.42043    0.70097    1.000
    Si3613   Si       0.59197    0.47752    0.71207    1.000
    N3614    N        0.59470    0.45487    0.74826    1.000
    N3615    N        0.68625    0.47807    0.66280    1.000
    Si3616   Si       0.71562    0.44609    0.66483    1.000
    N3617    N        0.62941    0.46010    0.62868    1.000
    N3618    N        0.72595    0.41876    0.63385    1.000
    N3619    N        0.71481    0.42160    0.70109    1.000
    Si3620   Si       0.55642    0.44361    0.76618    1.000
    Si3621   Si       0.50054    0.46658    0.80155    1.000
    N3622    N        0.54424    0.47175    0.79713    1.000
    N3623    N        0.49976    0.42275    0.79560    1.000
    Si3624   Si       0.55075    0.47975    0.83925    1.000
    Si3625   Si       0.72364    0.46495    0.85410    1.000
    N3626    N        0.68986    0.46387    0.82536    1.000
    Si3627   Si       0.63593    0.44694    0.76268    1.000
    Si3628   Si       0.65636    0.43901    0.83815    1.000
    Si3629   Si       0.70106    0.46877    0.78384    1.000
    N3630    N        0.63214    0.43316    0.80306    1.000
    N3631    N        0.71378    0.42514    0.77177    1.000
    N3632    N        0.66634    0.47848    0.76013    1.000
    N3633    N        0.63832    0.45813    0.87260    1.000
    N3634    N        0.56719    0.47621    0.94927    1.000
    N3635    N        0.56587    0.46320    0.87767    1.000
    Si3636   Si       0.54659    0.46031    0.91599    1.000
    N3637    N        0.49587    0.45496    0.97465    1.000
    Si3638   Si       0.58241    0.44579    0.98053    1.000
    N3639    N        0.72485    0.43309    0.88420    1.000
    N3640    N        0.71412    0.45549    0.96646    1.000
    N3641    N        0.64780    0.44811    0.97777    1.000
    Si3642   Si       0.67816    0.47643    0.96627    1.000
    N3643    N        0.55647    0.51433    0.05310    1.000
    Si3644   Si       0.51385    0.51578    0.06451    1.000
    N3645    N        0.50964    0.48756    0.09689    1.000
    N3646    N        0.49284    0.50886    0.02568    1.000
    Si3647   Si       0.58836    0.48465    0.05544    1.000
    N3648    N        0.62384    0.49923    0.07548    1.000
    Si3649   Si       0.70248    0.51837    0.02991    1.000
    N3650    N        0.66813    0.50329    0.00409    1.000
    Si3651   Si       0.64071    0.48689    0.11363    1.000
    N3652    N        0.72096    0.48397    0.04821    1.000
    Si3653   Si       0.54165    0.51110    0.20011    1.000
    N3654    N        0.57627    0.52715    0.17816    1.000
    N3655    N        0.54619    0.51819    0.24367    1.000
    N3656    N        0.72667    0.52978    0.23129    1.000
    Si3657   Si       0.61897    0.51587    0.18341    1.000
    Si3658   Si       0.71337    0.49679    0.20727    1.000
    N3659    N        0.71074    0.50774    0.16586    1.000
    N3660    N        0.63700    0.51945    0.14328    1.000
    N3661    N        0.59878    0.51536    0.33127    1.000
    Si3662   Si       0.54134    0.50491    0.28312    1.000
    N3663    N        0.50394    0.49179    0.30102    1.000
    Si3664   Si       0.70118    0.48502    0.32496    1.000
    N3665    N        0.72466    0.51510    0.30605    1.000
    N3666    N        0.62604    0.50148    0.26665    1.000
    N3667    N        0.66629    0.51024    0.33067    1.000
    Si3668   Si       0.63420    0.51735    0.30365    1.000
    Si3669   Si       0.50755    0.49555    0.48561    1.000
    N3670    N        0.50179    0.48096    0.38005    1.000
    N3671    N        0.68898    0.51639    0.41187    1.000
    N3672    N        0.71955    0.50134    0.47020    1.000
    N3673    N        0.61815    0.52720    0.39430    1.000
    Si3674   Si       0.71786    0.48824    0.42927    1.000
    Si3675   Si       0.64756    0.50919    0.41835    1.000
    N3676    N        0.64142    0.51300    0.46194    1.000
    N3677    N        0.52522    0.51421    0.57718    1.000
    N3678    N        0.59126    0.51907    0.60753    1.000
    N3679    N        0.53350    0.52710    0.50807    1.000
    Si3680   Si       0.54942    0.52869    0.61150    1.000
    Si3681   Si       0.49190    0.48516    0.58145    1.000
    N3682    N        0.67143    0.52265    0.59094    1.000
    Si3683   Si       0.65971    0.50009    0.55322    1.000
    N3684    N        0.67302    0.52421    0.51936    1.000
    Si3685   Si       0.71124    0.52329    0.60774    1.000
    Si3686   Si       0.69711    0.48943    0.50544    1.000
    N3687    N        0.73324    0.48616    0.59745    1.000
    Si3688   Si       0.63195    0.53829    0.60663    1.000
    N3689    N        0.52384    0.51954    0.64468    1.000
    N3690    N        0.58104    0.51829    0.72598    1.000
    N3691    N        0.50682    0.51371    0.71372    1.000
    Si3692   Si       0.49290    0.49163    0.65714    1.000
    Si3693   Si       0.54198    0.53641    0.72145    1.000
    N3694    N        0.63286    0.47994    0.69897    1.000
    N3695    N        0.70685    0.51416    0.71696    1.000
    N3696    N        0.71252    0.53460    0.64970    1.000
    Si3697   Si       0.64532    0.48931    0.65808    1.000
    Si3698   Si       0.66322    0.50012    0.72324    1.000
    N3699    N        0.64327    0.53221    0.64785    1.000
    Si3700   Si       0.71883    0.50432    0.67698    1.000
    Si3701   Si       0.73256    0.52872    0.74901    1.000
    N3702    N        0.58732    0.50500    0.83953    1.000
    N3703    N        0.50627    0.48338    0.84192    1.000
    N3704    N        0.73316    0.49735    0.78092    1.000
    Si3705   Si       0.60565    0.48521    0.87343    1.000
    N3706    N        0.50896    0.48157    0.91113    1.000
    N3707    N        0.49409    0.52799    0.95875    1.000
    Si3708   Si       0.58443    0.51500    0.94109    1.000
    N3709    N        0.60845    0.51362    0.90524    1.000
    Si3710   Si       0.49171    0.50273    0.87754    1.000
    N3711    N        0.61650    0.53474    0.96394    1.000
    Si3712   Si       0.70931    0.51791    0.90826    1.000
    N3713    N        0.72954    0.50446    0.87048    1.000
    Si3714   Si       0.64358    0.53493    0.92478    1.000
    N3715    N        0.67575    0.50441    0.93422    1.000
    Si3716   Si       0.56743    0.55336    0.03792    1.000
    N3717    N        0.50802    0.55552    0.08153    1.000
    N3718    N        0.56897    0.58232    0.06941    1.000
    Si3719   Si       0.53528    0.58651    0.09299    1.000
    N3720    N        0.53510    0.56324    0.01123    1.000
    N3721    N        0.61130    0.54727    0.02843    1.000
    Si3722   Si       0.49546    0.54266    0.99952    1.000
    Si3723   Si       0.63588    0.54036    0.06513    1.000
    N3724    N        0.63166    0.57131    0.09252    1.000
    Si3725   Si       0.69433    0.57625    0.07947    1.000
    N3726    N        0.67703    0.54711    0.05185    1.000
    N3727    N        0.73393    0.54273    0.01051    1.000
    Si3728   Si       0.64270    0.53916    0.99990    1.000
    N3729    N        0.69046    0.55969    0.11967    1.000
    N3730    N        0.54928    0.58611    0.13348    1.000
    Si3731   Si       0.55564    0.56528    0.16958    1.000
    N3732    N        0.53065    0.59379    0.23570    1.000
    N3733    N        0.51838    0.54313    0.18144    1.000
    Si3734   Si       0.65047    0.55839    0.12929    1.000
    Si3735   Si       0.65995    0.57961    0.19821    1.000
    N3736    N        0.63626    0.54382    0.21067    1.000
    Si3737   Si       0.71554    0.55162    0.15424    1.000
    N3738    N        0.64424    0.58722    0.15944    1.000
    N3739    N        0.70264    0.57314    0.19086    1.000
    Si3740   Si       0.73052    0.57305    0.22500    1.000
    Si3741   Si       0.52806    0.56183    0.33556    1.000
    Si3742   Si       0.54706    0.55956    0.25799    1.000
    N3743    N        0.54381    0.54546    0.29913    1.000
    N3744    N        0.59911    0.58406    0.36272    1.000
    Si3745   Si       0.59008    0.53990    0.36479    1.000
    N3746    N        0.58927    0.57439    0.25310    1.000
    N3747    N        0.54774    0.54392    0.37096    1.000
    N3748    N        0.64991    0.55673    0.29188    1.000
    N3749    N        0.71554    0.57706    0.31601    1.000
    Si3750   Si       0.68206    0.55128    0.32460    1.000
    N3751    N        0.67303    0.56746    0.36634    1.000
    Si3752   Si       0.63085    0.56146    0.25196    1.000
    N3753    N        0.53092    0.58868    0.47926    1.000
    Si3754   Si       0.55843    0.55453    0.48305    1.000
    Si3755   Si       0.53124    0.55873    0.40949    1.000
    N3756    N        0.55472    0.54251    0.44220    1.000
    N3757    N        0.49079    0.54677    0.40368    1.000
    Si3758   Si       0.63580    0.53827    0.49501    1.000
    Si3759   Si       0.70338    0.55241    0.39157    1.000
    N3760    N        0.65706    0.57447    0.48321    1.000
    N3761    N        0.72660    0.58596    0.40975    1.000
    Si3762   Si       0.63976    0.59295    0.37341    1.000
    N3763    N        0.55504    0.57637    0.55784    1.000
    Si3764   Si       0.59535    0.57998    0.54072    1.000
    N3765    N        0.59660    0.55315    0.50603    1.000
    Si3766   Si       0.52703    0.54520    0.54703    1.000
    N3767    N        0.48959    0.56520    0.54781    1.000
    N3768    N        0.54447    0.57082    0.62322    1.000
    N3769    N        0.62180    0.57093    0.57729    1.000
    Si3770   Si       0.68851    0.56461    0.51175    1.000
    N3771    N        0.68154    0.59163    0.54617    1.000
    N3772    N        0.68074    0.58346    0.61909    1.000
    Si3773   Si       0.72342    0.59230    0.61165    1.000
    N3774    N        0.73868    0.55469    0.59413    1.000
    N3775    N        0.72498    0.58641    0.50082    1.000
    N3776    N        0.54668    0.56713    0.69124    1.000
    Si3777   Si       0.52058    0.56067    0.65783    1.000
    N3778    N        0.59568    0.58517    0.73033    1.000
    Si3779   Si       0.60649    0.54696    0.74540    1.000
    Si3780   Si       0.67906    0.56725    0.73114    1.000
    Si3781   Si       0.67588    0.55870    0.65397    1.000
    N3782    N        0.68099    0.58212    0.69047    1.000
    N3783    N        0.64589    0.53891    0.73066    1.000
    Si3784   Si       0.53030    0.57413    0.79831    1.000
    N3785    N        0.55673    0.56933    0.83260    1.000
    N3786    N        0.53244    0.55083    0.76143    1.000
    Si3787   Si       0.59384    0.54558    0.82778    1.000
    Si3788   Si       0.53642    0.57487    0.87048    1.000
    N3789    N        0.61180    0.54972    0.78730    1.000
    N3790    N        0.62195    0.56558    0.85358    1.000
    Si3791   Si       0.66481    0.56578    0.85834    1.000
    N3792    N        0.67503    0.56622    0.81793    1.000
    Si3793   Si       0.71079    0.57687    0.79927    1.000
    Si3794   Si       0.63946    0.58118    0.79627    1.000
    N3795    N        0.71483    0.56886    0.75485    1.000
    N3796    N        0.65772    0.59507    0.75860    1.000
    Si3797   Si       0.51223    0.55329    0.92935    1.000
    N3798    N        0.55304    0.54563    0.94105    1.000
    N3799    N        0.51089    0.54189    0.88444    1.000
    Si3800   Si       0.61483    0.59302    0.88575    1.000
    Si3801   Si       0.61137    0.58155    0.96259    1.000
    N3802    N        0.56906    0.59729    0.89198    1.000
    N3803    N        0.70745    0.57876    0.95372    1.000
    N3804    N        0.64967    0.58008    0.98758    1.000
    N3805    N        0.68419    0.55016    0.89455    1.000
    Si3806   Si       0.69005    0.59410    0.91078    1.000
    N3807    N        0.63059    0.57583    0.92334    1.000
    N3808    N        0.51938    0.62555    0.08916    1.000
    N3809    N        0.55385    0.63837    0.02900    1.000
    Si3810   Si       0.59560    0.64041    0.01566    1.000
    Si3811   Si       0.60569    0.60510    0.08230    1.000
    Si3812   Si       0.54302    0.60712    0.00049    1.000
    N3813    N        0.62103    0.62577    0.04744    1.000
    N3814    N        0.68587    0.63385    0.00797    1.000
    Si3815   Si       0.66378    0.63983    0.04461    1.000
    N3816    N        0.68597    0.61908    0.07567    1.000
    Si3817   Si       0.70331    0.64522    0.10612    1.000
    N3818    N        0.60156    0.62727    0.12110    1.000
    Si3819   Si       0.56678    0.62363    0.14949    1.000
    Si3820   Si       0.57115    0.60876    0.22902    1.000
    N3821    N        0.57380    0.60204    0.18557    1.000
    N3822    N        0.58409    0.64667    0.24316    1.000
    N3823    N        0.73755    0.62345    0.12117    1.000
    Si3824   Si       0.63461    0.62782    0.14958    1.000
    N3825    N        0.65403    0.59971    0.23815    1.000
    N3826    N        0.67315    0.64288    0.13912    1.000
    N3827    N        0.63412    0.64756    0.18818    1.000
    N3828    N        0.70195    0.65053    0.21306    1.000
    N3829    N        0.53111    0.60565    0.34324    1.000
    Si3830   Si       0.49726    0.63208    0.34788    1.000
    N3831    N        0.58029    0.65150    0.36086    1.000
    Si3832   Si       0.56413    0.61204    0.37030    1.000
    Si3833   Si       0.72416    0.61322    0.29648    1.000
    N3834    N        0.65418    0.63296    0.35850    1.000
    N3835    N        0.68968    0.63962    0.29221    1.000
    N3836    N        0.73020    0.60505    0.25449    1.000
    Si3837   Si       0.68146    0.63562    0.24839    1.000
    Si3838   Si       0.55616    0.61334    0.45101    1.000
    Si3839   Si       0.50505    0.62246    0.48869    1.000
    N3840    N        0.59725    0.61467    0.46505    1.000
    N3841    N        0.53385    0.64857    0.46786    1.000
    N3842    N        0.54649    0.60123    0.40915    1.000
    N3843    N        0.70471    0.65320    0.40942    1.000
    Si3844   Si       0.63956    0.60348    0.45793    1.000
    N3845    N        0.64353    0.60565    0.41523    1.000
    Si3846   Si       0.66385    0.64322    0.40458    1.000
    N3847    N        0.65174    0.64355    0.47495    1.000
    Si3848   Si       0.73680    0.62671    0.41661    1.000
    N3849    N        0.57428    0.63153    0.60127    1.000
    N3850    N        0.50408    0.62012    0.58943    1.000
    Si3851   Si       0.60507    0.64509    0.57467    1.000
    N3852    N        0.60303    0.62358    0.53478    1.000
    N3853    N        0.49705    0.63964    0.52646    1.000
    Si3854   Si       0.54235    0.60155    0.59155    1.000
    Si3855   Si       0.61253    0.64920    0.49661    1.000
    Si3856   Si       0.71815    0.61677    0.54155    1.000
    N3857    N        0.72321    0.62502    0.58332    1.000
    N3858    N        0.64426    0.63564    0.59276    1.000
    Si3859   Si       0.65564    0.59609    0.58253    1.000
    N3860    N        0.53242    0.62390    0.71898    1.000
    N3861    N        0.58172    0.63252    0.67120    1.000
    Si3862   Si       0.56143    0.65108    0.63770    1.000
    Si3863   Si       0.56698    0.60491    0.70228    1.000
    N3864    N        0.52055    0.64987    0.64954    1.000
    Si3865   Si       0.61629    0.65618    0.68007    1.000
    Si3866   Si       0.51378    0.65244    0.69224    1.000
    N3867    N        0.69292    0.64023    0.65412    1.000
    N3868    N        0.70277    0.63619    0.73006    1.000
    N3869    N        0.64042    0.63790    0.70930    1.000
    Si3870   Si       0.67993    0.62421    0.69448    1.000
    Si3871   Si       0.73527    0.64732    0.65176    1.000
    N3872    N        0.52888    0.61556    0.79041    1.000
    Si3873   Si       0.52007    0.63496    0.82912    1.000
    Si3874   Si       0.54400    0.63968    0.75737    1.000
    N3875    N        0.50820    0.60708    0.86094    1.000
    Si3876   Si       0.59743    0.64637    0.82232    1.000
    N3877    N        0.61145    0.63278    0.86136    1.000
    N3878    N        0.55705    0.64943    0.84082    1.000
    N3879    N        0.61409    0.61591    0.79569    1.000
    N3880    N        0.58567    0.64878    0.74791    1.000
    N3881    N        0.72456    0.61698    0.79428    1.000
    Si3882   Si       0.65318    0.64704    0.86769    1.000
    Si3883   Si       0.73081    0.61000    0.75094    1.000
    Si3884   Si       0.61948    0.61930    0.74949    1.000
    Si3885   Si       0.57217    0.63863    0.88050    1.000
    N3886    N        0.58564    0.61078    0.98392    1.000
    N3887    N        0.51189    0.62502    0.97682    1.000
    Si3888   Si       0.67999    0.60808    0.97219    1.000
    N3889    N        0.72726    0.61084    0.89749    1.000
    N3890    N        0.66495    0.60686    0.87588    1.000
    N3891    N        0.67573    0.63091    0.93442    1.000
    N3892    N        0.55313    0.68648    0.08790    1.000
    Si3893   Si       0.50249    0.70623    0.02100    1.000
    N3894    N        0.60857    0.68008    0.00424    1.000
    N3895    N        0.54495    0.70460    0.02311    1.000
    N3896    N        0.49241    0.67623    0.05359    1.000
    Si3897   Si       0.53131    0.65727    0.06172    1.000
    N3898    N        0.71492    0.68638    0.09704    1.000
    N3899    N        0.66278    0.68353    0.05094    1.000
    Si3900   Si       0.63369    0.70537    0.02970    1.000
    Si3901   Si       0.68813    0.71004    0.07422    1.000
    N3902    N        0.73990    0.68331    0.01919    1.000
    Si3903   Si       0.56343    0.69617    0.12900    1.000
    N3904    N        0.50043    0.71008    0.18049    1.000
    Si3905   Si       0.50564    0.67014    0.16344    1.000
    N3906    N        0.60544    0.70849    0.13327    1.000
    N3907    N        0.54711    0.66230    0.15175    1.000
    N3908    N        0.60661    0.70513    0.20832    1.000
    N3909    N        0.54994    0.70701    0.23736    1.000
    Si3910   Si       0.50914    0.71394    0.22284    1.000
    Si3911   Si       0.67520    0.66119    0.17936    1.000
    Si3912   Si       0.61746    0.66552    0.22373    1.000
    N3913    N        0.66848    0.70152    0.17851    1.000
    Si3914   Si       0.73641    0.67532    0.20879    1.000
    Si3915   Si       0.62663    0.71579    0.17111    1.000
    N3916    N        0.54178    0.67509    0.30378    1.000
    Si3917   Si       0.55112    0.68161    0.34573    1.000
    Si3918   Si       0.56714    0.67997    0.26815    1.000
    Si3919   Si       0.50061    0.68109    0.29043    1.000
    N3920    N        0.51252    0.66957    0.36593    1.000
    N3921    N        0.59777    0.71436    0.27836    1.000
    N3922    N        0.70929    0.67945    0.34782    1.000
    N3923    N        0.63924    0.68541    0.32478    1.000
    Si3924   Si       0.64306    0.70134    0.28516    1.000
    N3925    N        0.64798    0.67052    0.25355    1.000
    Si3926   Si       0.62278    0.66505    0.36019    1.000
    Si3927   Si       0.67417    0.65821    0.32907    1.000
    N3928    N        0.59074    0.68067    0.47134    1.000
    Si3929   Si       0.55001    0.68823    0.47921    1.000
    Si3930   Si       0.61487    0.69409    0.43495    1.000
    N3931    N        0.63588    0.67488    0.40076    1.000
    N3932    N        0.70100    0.68824    0.47053    1.000
    Si3933   Si       0.71556    0.69127    0.39212    1.000
    N3934    N        0.54015    0.69553    0.52182    1.000
    N3935    N        0.59636    0.68829    0.57675    1.000
    Si3936   Si       0.49837    0.68238    0.52169    1.000
    N3937    N        0.63471    0.68324    0.52027    1.000
    N3938    N        0.69386    0.68823    0.59875    1.000
    Si3939   Si       0.72646    0.69532    0.51623    1.000
    Si3940   Si       0.73198    0.66720    0.58367    1.000
    Si3941   Si       0.67139    0.67260    0.49965    1.000
    Si3942   Si       0.61814    0.71194    0.54792    1.000
    N3943    N        0.70450    0.65646    0.52431    1.000
    N3944    N        0.53610    0.69046    0.70174    1.000
    N3945    N        0.57437    0.69106    0.64137    1.000
    N3946    N        0.60920    0.69500    0.70014    1.000
    Si3947   Si       0.57145    0.70943    0.68012    1.000
    Si3948   Si       0.60676    0.68608    0.74339    1.000
    Si3949   Si       0.54112    0.70819    0.74123    1.000
    Si3950   Si       0.68081    0.67177    0.74282    1.000
    Si3951   Si       0.66709    0.66045    0.62111    1.000
    N3952    N        0.64240    0.67947    0.65230    1.000
    Si3953   Si       0.72697    0.70420    0.69690    1.000
    N3954    N        0.68465    0.69675    0.70697    1.000
    Si3955   Si       0.65003    0.70670    0.68367    1.000
    N3956    N        0.52298    0.67672    0.76474    1.000
    N3957    N        0.61001    0.68740    0.81690    1.000
    N3958    N        0.70777    0.68573    0.77681    1.000
    N3959    N        0.64445    0.67732    0.76324    1.000
    Si3960   Si       0.65304    0.68691    0.80436    1.000
    N3961    N        0.67311    0.65801    0.82946    1.000
    Si3962   Si       0.71141    0.65611    0.80929    1.000
    Si3963   Si       0.51475    0.66445    0.96448    1.000
    N3964    N        0.57925    0.67645    0.89979    1.000
    N3965    N        0.55241    0.68789    0.95993    1.000
    N3966    N        0.50658    0.66995    0.92229    1.000
    Si3967   Si       0.54389    0.69417    0.91779    1.000
    Si3968   Si       0.57454    0.70866    0.99151    1.000
    Si3969   Si       0.61369    0.70171    0.90091    1.000
    N3970    N        0.73682    0.65724    0.96124    1.000
    N3971    N        0.67864    0.68899    0.96574    1.000
    N3972    N        0.64935    0.67962    0.89586    1.000
    Si3973   Si       0.68253    0.67249    0.92408    1.000
    N3974    N        0.71843    0.67749    0.90041    1.000
    Si3975   Si       0.70663    0.66870    0.99202    1.000
    N3976    N        0.54605    0.75666    0.06850    1.000
    Si3977   Si       0.56425    0.71761    0.06086    1.000
    N3978    N        0.60749    0.71929    0.06204    1.000
    N3979    N        0.48933    0.74562    0.02704    1.000
    N3980    N        0.60448    0.77468    0.10647    1.000
    Si3981   Si       0.56081    0.77064    0.10826    1.000
    Si3982   Si       0.62027    0.73373    0.10122    1.000
    N3983    N        0.66315    0.73411    0.10441    1.000
    N3984    N        0.71325    0.73842    0.05251    1.000
    N3985    N        0.64749    0.73662    0.00267    1.000
    Si3986   Si       0.71523    0.77537    0.03134    1.000
    N3987    N        0.54493    0.73665    0.13045    1.000
    Si3988   Si       0.50745    0.74172    0.15139    1.000
    N3989    N        0.50322    0.75556    0.23865    1.000
    Si3990   Si       0.58744    0.72930    0.23754    1.000
    N3991    N        0.60148    0.76885    0.23157    1.000
    N3992    N        0.70674    0.75399    0.16007    1.000
    Si3993   Si       0.67006    0.76018    0.13799    1.000
    N3994    N        0.67239    0.76024    0.22398    1.000
    N3995    N        0.63650    0.75874    0.16752    1.000
    Si3996   Si       0.69149    0.73257    0.19521    1.000
    N3997    N        0.72639    0.71513    0.21889    1.000
    Si3998   Si       0.58457    0.74035    0.31034    1.000
    Si3999   Si       0.51046    0.75626    0.28192    1.000
    N4000    N        0.56028    0.72534    0.34297    1.000
    Si4001   Si       0.53891    0.75847    0.35983    1.000
    N4002    N        0.55523    0.76476    0.28449    1.000
    N4003    N        0.49617    0.75460    0.36001    1.000
    N4004    N        0.49041    0.72144    0.30115    1.000
    N4005    N        0.61537    0.76685    0.32582    1.000
    N4006    N        0.66837    0.73753    0.28881    1.000
    Si4007   Si       0.68982    0.76437    0.26291    1.000
    Si4008   Si       0.65735    0.76910    0.31563    1.000
    Si4009   Si       0.56253    0.74714    0.43389    1.000
    N4010    N        0.53656    0.72684    0.46444    1.000
    Si4011   Si       0.49566    0.76306    0.40444    1.000
    N4012    N        0.54001    0.76960    0.40262    1.000
    N4013    N        0.59299    0.77002    0.45065    1.000
    Si4014   Si       0.49268    0.72461    0.46368    1.000
    N4015    N        0.58109    0.71300    0.41511    1.000
    Si4016   Si       0.68761    0.72428    0.44768    1.000
    N4017    N        0.70116    0.75759    0.46998    1.000
    N4018    N        0.64469    0.72131    0.45288    1.000
    Si4019   Si       0.68423    0.76715    0.39318    1.000
    Si4020   Si       0.63696    0.76364    0.45811    1.000
    N4021    N        0.69293    0.72576    0.40539    1.000
    N4022    N        0.58880    0.74279    0.53692    1.000
    N4023    N        0.59027    0.75242    0.61442    1.000
    Si4024   Si       0.54598    0.73312    0.54409    1.000
    N4025    N        0.53549    0.71979    0.58532    1.000
    Si4026   Si       0.49179    0.72009    0.58388    1.000
    Si4027   Si       0.57508    0.71315    0.60423    1.000
    N4028    N        0.64484    0.73586    0.57405    1.000
    N4029    N        0.71065    0.75041    0.59635    1.000
    Si4030   Si       0.68148    0.75931    0.51090    1.000
    Si4031   Si       0.68666    0.72267    0.57430    1.000
    N4032    N        0.69244    0.72219    0.52983    1.000
    Si4033   Si       0.62408    0.76802    0.59176    1.000
    Si4034   Si       0.73174    0.71790    0.62242    1.000
    N4035    N        0.51814    0.74523    0.73573    1.000
    N4036    N        0.56332    0.75224    0.68156    1.000
    N4037    N        0.72894    0.73080    0.66406    1.000
    N4038    N        0.64386    0.74564    0.67224    1.000
    Si4039   Si       0.60157    0.75461    0.76259    1.000
    N4040    N        0.60224    0.76032    0.80553    1.000
    N4041    N        0.58023    0.71799    0.75486    1.000
    N4042    N        0.60048    0.73089    0.87039    1.000
    Si4043   Si       0.61722    0.72909    0.82996    1.000
    Si4044   Si       0.69458    0.75011    0.82643    1.000
    N4045    N        0.71549    0.75419    0.78952    1.000
    N4046    N        0.65884    0.72669    0.82227    1.000
    N4047    N        0.71418    0.73928    0.86326    1.000
    Si4048   Si       0.73534    0.71973    0.77295    1.000
    N4049    N        0.63964    0.76027    0.74365    1.000
    Si4050   Si       0.56563    0.75656    0.88207    1.000
    N4051    N        0.53461    0.73224    0.89765    1.000
    N4052    N        0.57526    0.75277    0.98378    1.000
    Si4053   Si       0.59849    0.76216    0.94897    1.000
    Si4054   Si       0.49491    0.74959    0.89405    1.000
    N4055    N        0.68016    0.74513    0.93170    1.000
    N4056    N        0.61629    0.72208    0.93945    1.000
    Si4057   Si       0.65588    0.72515    0.96171    1.000
    Si4058   Si       0.70933    0.75868    0.90233    1.000
    N4059    N        0.53161    0.80615    0.02289    1.000
    N4060    N        0.60567    0.79692    0.02571    1.000
    Si4061   Si       0.51082    0.82424    0.10360    1.000
    N4062    N        0.55036    0.81234    0.11415    1.000
    Si4063   Si       0.51207    0.77748    0.04841    1.000
    Si4064   Si       0.57046    0.79434    0.00050    1.000
    N4065    N        0.48805    0.79332    0.08115    1.000
    Si4066   Si       0.62853    0.80897    0.10781    1.000
    N4067    N        0.68081    0.79508    0.01318    1.000
    Si4068   Si       0.63980    0.77785    0.00655    1.000
    N4069    N        0.73827    0.80828    0.04343    1.000
    Si4070   Si       0.70502    0.82170    0.11950    1.000
    N4071    N        0.66829    0.79949    0.12111    1.000
    N4072    N        0.51410    0.77629    0.17475    1.000
    N4073    N        0.54928    0.81193    0.22601    1.000
    Si4074   Si       0.51213    0.79040    0.21552    1.000
    Si4075   Si       0.63692    0.77918    0.20589    1.000
    N4076    N        0.64180    0.82123    0.19811    1.000
    Si4077   Si       0.59664    0.80154    0.34734    1.000
    Si4078   Si       0.52397    0.81666    0.31771    1.000
    N4079    N        0.55157    0.79916    0.34875    1.000
    Si4080   Si       0.57406    0.79887    0.26068    1.000
    N4081    N        0.49439    0.79332    0.29835    1.000
    N4082    N        0.55301    0.83310    0.29023    1.000
    N4083    N        0.60579    0.83117    0.26259    1.000
    N4084    N        0.68499    0.77459    0.34912    1.000
    N4085    N        0.66968    0.79881    0.28583    1.000
    Si4086   Si       0.72883    0.79453    0.35248    1.000
    N4087    N        0.73169    0.77575    0.25732    1.000
    N4088    N        0.54882    0.82165    0.44076    1.000
    Si4089   Si       0.58388    0.81068    0.46279    1.000
    Si4090   Si       0.55566    0.81753    0.39707    1.000
    N4091    N        0.59737    0.81039    0.38948    1.000
    Si4092   Si       0.63271    0.82057    0.41401    1.000
    Si4093   Si       0.72949    0.78531    0.48593    1.000
    N4094    N        0.72213    0.78983    0.39558    1.000
    N4095    N        0.73574    0.82108    0.46404    1.000
    N4096    N        0.65536    0.78276    0.42231    1.000
    N4097    N        0.57612    0.80510    0.50560    1.000
    Si4098   Si       0.51139    0.78644    0.59185    1.000
    Si4099   Si       0.54292    0.81530    0.53231    1.000
    N4100    N        0.53121    0.77603    0.55321    1.000
    Si4101   Si       0.60630    0.78038    0.52541    1.000
    N4102    N        0.61780    0.80080    0.56190    1.000
    N4103    N        0.70568    0.79333    0.52270    1.000
    Si4104   Si       0.69942    0.79044    0.60865    1.000
    N4105    N        0.70731    0.82830    0.58756    1.000
    Si4106   Si       0.71685    0.82778    0.54655    1.000
    N4107    N        0.65585    0.78832    0.61971    1.000
    N4108    N        0.64124    0.77064    0.49997    1.000
    N4109    N        0.53342    0.79433    0.63082    1.000
    N4110    N        0.52342    0.80728    0.70102    1.000
    N4111    N        0.60118    0.80309    0.66098    1.000
    Si4112   Si       0.50149    0.80075    0.66426    1.000
    Si4113   Si       0.56981    0.77676    0.64598    1.000
    Si4114   Si       0.54606    0.77285    0.71667    1.000
    Si4115   Si       0.70240    0.82389    0.67322    1.000
    N4116    N        0.66816    0.80438    0.69048    1.000
    Si4117   Si       0.65639    0.79908    0.73388    1.000
    N4118    N        0.72075    0.79707    0.64551    1.000
    Si4119   Si       0.64185    0.78652    0.65967    1.000
    N4120    N        0.62405    0.82746    0.73756    1.000
    Si4121   Si       0.59618    0.79790    0.82946    1.000
    Si4122   Si       0.52022    0.80834    0.85336    1.000
    N4123    N        0.55866    0.78659    0.85070    1.000
    Si4124   Si       0.58792    0.82473    0.75985    1.000
    N4125    N        0.57294    0.78545    0.74964    1.000
    N4126    N        0.48936    0.77787    0.85889    1.000
    N4127    N        0.59444    0.83133    0.80143    1.000
    N4128    N        0.62549    0.80154    0.86119    1.000
    N4129    N        0.68711    0.79375    0.82583    1.000
    Si4130   Si       0.70820    0.79922    0.78861    1.000
    Si4131   Si       0.66861    0.81337    0.86095    1.000
    N4132    N        0.68800    0.81907    0.75797    1.000
    N4133    N        0.56680    0.82183    0.96496    1.000
    N4134    N        0.58509    0.78185    0.91153    1.000
    Si4135   Si       0.60136    0.81772    0.89251    1.000
    N4136    N        0.51619    0.82438    0.89574    1.000
    Si4137   Si       0.70069    0.82529    0.98765    1.000
    Si4138   Si       0.70683    0.83106    0.92470    1.000
    N4139    N        0.63058    0.78756    0.96547    1.000
    N4140    N        0.69847    0.79962    0.89293    1.000
    N4141    N        0.73449    0.81321    0.96083    1.000
    N4142    N        0.51276    0.86114    0.08114    1.000
    N4143    N        0.57673    0.86511    0.03925    1.000
    Si4144   Si       0.55187    0.87612    0.07523    1.000
    N4145    N        0.57470    0.87797    0.11119    1.000
    Si4146   Si       0.51181    0.84113    0.00531    1.000
    N4147    N        0.52568    0.88376    0.00234    1.000
    Si4148   Si       0.61248    0.84004    0.03604    1.000
    N4149    N        0.70179    0.85004    0.08495    1.000
    Si4150   Si       0.66255    0.86769    0.08182    1.000
    N4151    N        0.70439    0.86115    0.01187    1.000
    Si4152   Si       0.66464    0.87908    0.00476    1.000
    Si4153   Si       0.72681    0.85027    0.04957    1.000
    N4154    N        0.63301    0.83614    0.07341    1.000
    N4155    N        0.63095    0.85225    0.99806    1.000
    N4156    N        0.59789    0.87281    0.21017    1.000
    Si4157   Si       0.55706    0.85465    0.21508    1.000
    N4158    N        0.54310    0.85102    0.17302    1.000
    Si4159   Si       0.56867    0.84377    0.13881    1.000
    Si4160   Si       0.49913    0.84340    0.17555    1.000
    N4161    N        0.53539    0.88303    0.23834    1.000
    Si4162   Si       0.49223    0.88625    0.23286    1.000
    N4163    N        0.61314    0.83461    0.14134    1.000
    N4164    N        0.65064    0.88947    0.11732    1.000
    Si4165   Si       0.72066    0.87834    0.16493    1.000
    N4166    N        0.65708    0.88895    0.18407    1.000
    Si4167   Si       0.65077    0.84868    0.16246    1.000
    N4168    N        0.69582    0.84627    0.15381    1.000
    Si4169   Si       0.62624    0.84589    0.22898    1.000
    N4170    N        0.72227    0.88386    0.20987    1.000
    Si4171   Si       0.68225    0.89096    0.22225    1.000
    Si4172   Si       0.59105    0.85246    0.29593    1.000
    N4173    N        0.49938    0.85056    0.33000    1.000
    N4174    N        0.61314    0.83869    0.33114    1.000
    Si4175   Si       0.50044    0.86353    0.37012    1.000
    Si4176   Si       0.64664    0.85775    0.35196    1.000
    N4177    N        0.67714    0.85807    0.32090    1.000
    Si4178   Si       0.71939    0.86667    0.31592    1.000
    N4179    N        0.72230    0.84234    0.27911    1.000
    Si4180   Si       0.67835    0.83882    0.28060    1.000
    N4181    N        0.66136    0.86228    0.24882    1.000
    N4182    N        0.73652    0.83830    0.34652    1.000
    N4183    N        0.49678    0.86725    0.44284    1.000
    Si4184   Si       0.53192    0.85383    0.46472    1.000
    N4185    N        0.54098    0.85796    0.38724    1.000
    Si4186   Si       0.60904    0.87818    0.45716    1.000
    N4187    N        0.56849    0.88216    0.47448    1.000
    N4188    N        0.61726    0.83583    0.45122    1.000
    Si4189   Si       0.69119    0.87284    0.41567    1.000
    Si4190   Si       0.72218    0.86073    0.48428    1.000
    N4191    N        0.73161    0.85522    0.40988    1.000
    N4192    N        0.65931    0.85127    0.39335    1.000
    N4193    N        0.69367    0.88206    0.45846    1.000
    Si4194   Si       0.54198    0.87790    0.57773    1.000
    N4195    N        0.56114    0.84117    0.56373    1.000
    Si4196   Si       0.60527    0.84040    0.57067    1.000
    N4197    N        0.60349    0.85481    0.61423    1.000
    N4198    N        0.51618    0.83772    0.50493    1.000
    N4199    N        0.52093    0.87698    0.61605    1.000
    N4200    N        0.62707    0.86738    0.54341    1.000
    N4201    N        0.69599    0.85711    0.52200    1.000
    Si4202   Si       0.65736    0.88196    0.51768    1.000
    Si4203   Si       0.71760    0.86157    0.61515    1.000
    N4204    N        0.55952    0.86299    0.67450    1.000
    Si4205   Si       0.53559    0.84818    0.70799    1.000
    Si4206   Si       0.59746    0.84691    0.65917    1.000
    N4207    N        0.50150    0.87439    0.71535    1.000
    N4208    N        0.55893    0.85287    0.74371    1.000
    N4209    N        0.62701    0.86965    0.67990    1.000
    N4210    N        0.68927    0.85928    0.65047    1.000
    N4211    N        0.72761    0.83693    0.70456    1.000
    N4212    N        0.67462    0.87693    0.71915    1.000
    Si4213   Si       0.63200    0.86698    0.72368    1.000
    Si4214   Si       0.70656    0.85503    0.73930    1.000
    Si4215   Si       0.66969    0.88812    0.67625    1.000
    Si4216   Si       0.59047    0.86774    0.82636    1.000
    N4217    N        0.50854    0.84702    0.83734    1.000
    N4218    N        0.58771    0.85197    0.86548    1.000
    N4219    N        0.72595    0.88515    0.76580    1.000
    N4220    N        0.66804    0.85638    0.86151    1.000
    Si4221   Si       0.70526    0.87885    0.86593    1.000
    N4222    N        0.73393    0.89244    0.83499    1.000
    Si4223   Si       0.59314    0.87911    0.91173    1.000
    Si4224   Si       0.52288    0.87258    0.87635    1.000
    N4225    N        0.54856    0.87347    0.91389    1.000
    Si4226   Si       0.53708    0.83481    0.93613    1.000
    N4227    N        0.50278    0.83022    0.96342    1.000
    N4228    N        0.61612    0.84344    0.92333    1.000
    N4229    N        0.71825    0.86828    0.90546    1.000
    N4230    N        0.67589    0.83815    0.95387    1.000
    Si4231   Si       0.63262    0.82994    0.96027    1.000
    N4232    N        0.54925    0.91642    0.05996    1.000
    N4233    N        0.60247    0.92198    0.01350    1.000
    Si4234   Si       0.56108    0.90386    0.02016    1.000
    Si4235   Si       0.60900    0.90282    0.11470    1.000
    N4236    N        0.53217    0.94513    0.99983    1.000
    N4237    N        0.61394    0.93421    0.08514    1.000
    Si4238   Si       0.62968    0.92581    0.04521    1.000
    N4239    N        0.72092    0.93371    0.07784    1.000
    N4240    N        0.71567    0.92941    0.00396    1.000
    N4241    N        0.65709    0.89235    0.04621    1.000
    Si4242   Si       0.71090    0.94926    0.11834    1.000
    Si4243   Si       0.73695    0.89267    0.00121    1.000
    N4244    N        0.61215    0.92333    0.15344    1.000
    N4245    N        0.50364    0.94731    0.18568    1.000
    N4246    N        0.61394    0.94028    0.22413    1.000
    Si4247   Si       0.66275    0.92183    0.14854    1.000
    N4248    N        0.68213    0.92716    0.24272    1.000
    Si4249   Si       0.61638    0.90848    0.19394    1.000
    N4250    N        0.70690    0.91470    0.14577    1.000
    Si4251   Si       0.59595    0.91665    0.33011    1.000
    Si4252   Si       0.52163    0.92610    0.34384    1.000
    N4253    N        0.51745    0.90943    0.30511    1.000
    N4254    N        0.56227    0.92148    0.36023    1.000
    Si4255   Si       0.54718    0.90946    0.27178    1.000
    N4256    N        0.58384    0.89624    0.29251    1.000
    N4257    N        0.54868    0.94618    0.24712    1.000
    Si4258   Si       0.73030    0.93430    0.33403    1.000
    N4259    N        0.62870    0.89800    0.35310    1.000
    N4260    N        0.72405    0.90808    0.30003    1.000
    Si4261   Si       0.71663    0.93593    0.26709    1.000
    N4262    N        0.72212    0.90146    0.36269    1.000
    N4263    N        0.49773    0.90576    0.37421    1.000
    Si4264   Si       0.49783    0.90511    0.41864    1.000
    Si4265   Si       0.55286    0.92331    0.46638    1.000
    N4266    N        0.53980    0.91508    0.42681    1.000
    N4267    N        0.51660    0.93753    0.48843    1.000
    Si4268   Si       0.56493    0.89377    0.39685    1.000
    N4269    N        0.60290    0.89279    0.41684    1.000
    N4270    N        0.67230    0.91423    0.41084    1.000
    Si4271   Si       0.67012    0.92264    0.45749    1.000
    N4272    N        0.70685    0.94173    0.48045    1.000
    Si4273   Si       0.63274    0.91416    0.39074    1.000
    Si4274   Si       0.70407    0.93201    0.38854    1.000
    N4275    N        0.63800    0.90048    0.48103    1.000
    N4276    N        0.57309    0.90763    0.58523    1.000
    Si4277   Si       0.52240    0.93708    0.53281    1.000
    Si4278   Si       0.60423    0.89704    0.61301    1.000
    N4279    N        0.51857    0.89493    0.54420    1.000
    N4280    N        0.64149    0.91710    0.60326    1.000
    N4281    N        0.67268    0.91961    0.53809    1.000
    Si4282   Si       0.67639    0.92036    0.58016    1.000
    N4283    N        0.71160    0.89861    0.59396    1.000
    Si4284   Si       0.70268    0.94679    0.52378    1.000
    Si4285   Si       0.54506    0.89502    0.64896    1.000
    N4286    N        0.52243    0.92342    0.67181    1.000
    N4287    N        0.55256    0.92486    0.73936    1.000
    N4288    N        0.58389    0.92009    0.64623    1.000
    Si4289   Si       0.51748    0.91500    0.71392    1.000
    N4290    N        0.48788    0.94057    0.73260    1.000
    N4291    N        0.68315    0.92629    0.66844    1.000
    N4292    N        0.52671    0.91189    0.85732    1.000
    Si4293   Si       0.52625    0.91317    0.81568    1.000
    N4294    N        0.49652    0.89568    0.79052    1.000
    N4295    N        0.61157    0.89176    0.75278    1.000
    N4296    N        0.56329    0.89468    0.80377    1.000
    Si4297   Si       0.56783    0.89105    0.76130    1.000
    Si4298   Si       0.62902    0.91467    0.78685    1.000
    N4299    N        0.66743    0.92712    0.77646    1.000
    Si4300   Si       0.71000    0.92992    0.77018    1.000
    Si4301   Si       0.64523    0.89652    0.86300    1.000
    N4302    N        0.62566    0.89348    0.82552    1.000
    Si4303   Si       0.54690    0.90987    0.94019    1.000
    N4304    N        0.50457    0.91386    0.94896    1.000
    N4305    N        0.58686    0.89950    0.95345    1.000
    N4306    N        0.55785    0.94464    0.91220    1.000
    Si4307   Si       0.50051    0.91860    0.99180    1.000
    Si4308   Si       0.60173    0.95185    0.90657    1.000
    Si4309   Si       0.52605    0.94849    0.88281    1.000
    Si4310   Si       0.61803    0.92373    0.97156    1.000
    N4311    N        0.65938    0.91099    0.97480    1.000
    N4312    N        0.61649    0.91168    0.89323    1.000
    N4313    N        0.68226    0.91729    0.86985    1.000
    Si4314   Si       0.69145    0.93886    0.96834    1.000
    N4315    N        0.71436    0.93135    0.93264    1.000
    Si4316   Si       0.70217    0.94697    0.89415    1.000
    N4317    N        0.56824    0.98061    0.05143    1.000
    N4318    N        0.50918    0.97437    0.07998    1.000
    Si4319   Si       0.54615    0.98400    0.01373    1.000
    Si4320   Si       0.54931    0.95404    0.08156    1.000
    N4321    N        0.61699    0.99685    0.00866    1.000
    N4322    N        0.72105    0.99113    0.03675    1.000
    Si4323   Si       0.66085    0.99264    0.01442    1.000
    Si4324   Si       0.64001    0.96858    0.08948    1.000
    N4325    N        0.66142    0.95930    0.04600    1.000
    N4326    N        0.66663    0.95725    0.12093    1.000
    Si4327   Si       0.70445    0.95038    0.04206    1.000
    N4328    N        0.63120    0.00934    0.07504    1.000
    N4329    N        0.55099    0.95304    0.12523    1.000
    Si4330   Si       0.57942    0.96479    0.22489    1.000
    Si4331   Si       0.52973    0.96801    0.16193    1.000
    N4332    N        0.56931    0.97260    0.18288    1.000
    Si4333   Si       0.58849    0.95884    0.14527    1.000
    Si4334   Si       0.51175    0.95356    0.22667    1.000
    N4335    N        0.61432    0.98991    0.13005    1.000
    N4336    N        0.57741    0.00879    0.23252    1.000
    N4337    N        0.49282    0.99549    0.23075    1.000
    Si4338   Si       0.65084    0.98905    0.15663    1.000
    N4339    N        0.66314    0.95583    0.18310    1.000
    N4340    N        0.73003    0.98667    0.12825    1.000
    Si4341   Si       0.65508    0.95653    0.22673    1.000
    N4342    N        0.50819    0.96758    0.34730    1.000
    N4343    N        0.60140    0.95856    0.32692    1.000
    Si4344   Si       0.58880    0.96803    0.36989    1.000
    Si4345   Si       0.49322    0.00571    0.27242    1.000
    N4346    N        0.59579    0.00972    0.35910    1.000
    Si4347   Si       0.61660    0.99924    0.32120    1.000
    N4348    N        0.70467    0.96263    0.35630    1.000
    N4349    N        0.71591    0.97771    0.28559    1.000
    Si4350   Si       0.68443    0.00025    0.35488    1.000
    N4351    N        0.65910    0.99970    0.31885    1.000
    Si4352   Si       0.68304    0.00641    0.28446    1.000
    N4353    N        0.66176    0.99496    0.24656    1.000
    N4354    N        0.60688    0.00647    0.44210    1.000
    N4355    N        0.57890    0.95755    0.46586    1.000
    Si4356   Si       0.52216    0.99452    0.37802    1.000
    Si4357   Si       0.56489    0.99032    0.43951    1.000
    N4358    N        0.55808    0.98106    0.39704    1.000
    N4359    N        0.49205    0.99316    0.40967    1.000
    Si4360   Si       0.61552    0.97612    0.47728    1.000
    Si4361   Si       0.73879    0.95441    0.45277    1.000
    N4362    N        0.62328    0.95582    0.39297    1.000
    Si4363   Si       0.63859    0.98585    0.41759    1.000
    Si4364   Si       0.68841    0.98860    0.47688    1.000
    N4365    N        0.65387    0.96553    0.45838    1.000
    N4366    N        0.72416    0.99611    0.45483    1.000
    N4367    N        0.66771    0.00840    0.39549    1.000
    Si4368   Si       0.59110    0.98958    0.54883    1.000
    Si4369   Si       0.50758    0.97861    0.58402    1.000
    N4370    N        0.60643    0.97152    0.58576    1.000
    N4371    N        0.55354    0.96274    0.54918    1.000
    N4372    N        0.53501    0.96366    0.61334    1.000
    N4373    N        0.48907    0.96022    0.54870    1.000
    Si4374   Si       0.56915    0.94937    0.58903    1.000
    N4375    N        0.62095    0.98959    0.51767    1.000
    N4376    N        0.69275    0.98994    0.52235    1.000
    Si4377   Si       0.71716    0.98391    0.60798    1.000
    N4378    N        0.68210    0.96209    0.59274    1.000
    Si4379   Si       0.64104    0.95856    0.60834    1.000
    N4380    N        0.56257    0.97895    0.67333    1.000
    Si4381   Si       0.52513    0.96386    0.65489    1.000
    N4382    N        0.49845    0.99210    0.67628    1.000
    N4383    N        0.60873    0.95639    0.71437    1.000
    Si4384   Si       0.59906    0.95351    0.67185    1.000
    Si4385   Si       0.56933    0.00849    0.70451    1.000
    N4386    N        0.67206    0.98534    0.70696    1.000
    N4387    N        0.70271    0.99549    0.64478    1.000
    Si4388   Si       0.63257    0.99195    0.72242    1.000
    N4389    N        0.72020    0.95540    0.73734    1.000
    Si4390   Si       0.70818    0.99700    0.72850    1.000
    Si4391   Si       0.67514    0.96838    0.66783    1.000
    N4392    N        0.63522    0.96871    0.65082    1.000
    N4393    N        0.53920    0.98226    0.85667    1.000
    Si4394   Si       0.50728    0.98644    0.82738    1.000
    Si4395   Si       0.57799    0.00338    0.85776    1.000
    N4396    N        0.51566    0.95256    0.80120    1.000
    N4397    N        0.56341    0.99724    0.74854    1.000
    Si4398   Si       0.58034    0.95710    0.74806    1.000
    N4399    N        0.60365    0.94992    0.78345    1.000
    Si4400   Si       0.62229    0.98629    0.80116    1.000
    N4401    N        0.65766    0.98727    0.82682    1.000
    Si4402   Si       0.69702    0.99075    0.80656    1.000
    N4403    N        0.72244    0.95478    0.80488    1.000
    N4404    N        0.61000    0.98228    0.87615    1.000
    Si4405   Si       0.60247    0.99694    0.96891    1.000
    N4406    N        0.55867    0.00036    0.97346    1.000
    N4407    N        0.61457    0.96026    0.94805    1.000
    N4408    N        0.73937    0.95310    0.87516    1.000
    Si4409   Si       0.65076    0.99713    0.86934    1.000
    N4410    N        0.73427    0.00513    0.92900    1.000
    N4411    N        0.68283    0.98131    0.97392    1.000
    N4412    N        0.67645    0.98188    0.89984    1.000
    Si4413   Si       0.68989    0.00190    0.93615    1.000
    N4414    N        0.83768    0.03284    0.09009    1.000
    Si4415   Si       0.78281    0.05068    0.03688    1.000
    N4416    N        0.77360    0.05098    0.11255    1.000
    Si4417   Si       0.79792    0.01749    0.09729    1.000
    N4418    N        0.81236    0.05667    0.00510    1.000
    N4419    N        0.74241    0.05726    0.02338    1.000
    N4420    N        0.78269    0.01304    0.05598    1.000
    N4421    N        0.94561    0.04149    0.03642    1.000
    Si4422   Si       0.90669    0.02339    0.03748    1.000
    N4423    N        0.88017    0.05913    0.03873    1.000
    N4424    N        0.89161    0.05601    0.10896    1.000
    Si4425   Si       0.97962    0.01806    0.02713    1.000
    Si4426   Si       0.87358    0.01592    0.10664    1.000
    Si4427   Si       0.78833    0.01602    0.21627    1.000
    Si4428   Si       0.85289    0.04949    0.23427    1.000
    Si4429   Si       0.76302    0.05552    0.15519    1.000
    N4430    N        0.77777    0.01879    0.17489    1.000
    N4431    N        0.80655    0.04966    0.23394    1.000
    N4432    N        0.74784    0.01244    0.23463    1.000
    N4433    N        0.85873    0.06748    0.19508    1.000
    N4434    N        0.93936    0.02449    0.23503    1.000
    N4435    N        0.95577    0.06674    0.12651    1.000
    Si4436   Si       0.95423    0.04094    0.19813    1.000
    N4437    N        0.92036    0.03738    0.17040    1.000
    N4438    N        0.98118    0.01828    0.17235    1.000
    Si4439   Si       0.96594    0.02536    0.13350    1.000
    Si4440   Si       0.80172    0.04342    0.30681    1.000
    N4441    N        0.84480    0.03686    0.31170    1.000
    N4442    N        0.78489    0.04551    0.34709    1.000
    Si4443   Si       0.74735    0.05336    0.36517    1.000
    Si4444   Si       0.94993    0.03346    0.27650    1.000
    Si4445   Si       0.88354    0.05657    0.30144    1.000
    N4446    N        0.91404    0.02329    0.29953    1.000
    N4447    N        0.95543    0.06101    0.35315    1.000
    N4448    N        0.98452    0.01118    0.28653    1.000
    Si4449   Si       0.96697    0.02568    0.37421    1.000
    N4450    N        0.76174    0.02847    0.40232    1.000
    N4451    N        0.76179    0.04834    0.47462    1.000
    Si4452   Si       0.84603    0.04971    0.48509    1.000
    N4453    N        0.82593    0.04839    0.40179    1.000
    Si4454   Si       0.79841    0.02216    0.38173    1.000
    Si4455   Si       0.74062    0.03312    0.43893    1.000
    N4456    N        0.86523    0.02682    0.45149    1.000
    N4457    N        0.98043    0.01693    0.46285    1.000
    Si4458   Si       0.86288    0.05539    0.41806    1.000
    N4459    N        0.89156    0.04307    0.38474    1.000
    Si4460   Si       0.98678    0.05256    0.44064    1.000
    N4461    N        0.83832    0.02515    0.57170    1.000
    N4462    N        0.79407    0.03808    0.61206    1.000
    Si4463   Si       0.78247    0.03009    0.50791    1.000
    Si4464   Si       0.80912    0.05740    0.57356    1.000
    N4465    N        0.78373    0.06109    0.53952    1.000
    Si4466   Si       0.83340    0.01573    0.61601    1.000
    N4467    N        0.82149    0.01299    0.50110    1.000
    N4468    N        0.87035    0.05848    0.52090    1.000
    Si4469   Si       0.87394    0.02611    0.54836    1.000
    N4470    N        0.94542    0.02735    0.51962    1.000
    N4471    N        0.90632    0.04149    0.57302    1.000
    Si4472   Si       0.93772    0.05945    0.54882    1.000
    Si4473   Si       0.91091    0.01814    0.60880    1.000
    Si4474   Si       0.98790    0.02210    0.50398    1.000
    N4475    N        0.78749    0.03370    0.68414    1.000
    Si4476   Si       0.75747    0.04808    0.71285    1.000
    N4477    N        0.85122    0.04915    0.64243    1.000
    Si4478   Si       0.77762    0.05430    0.64724    1.000
    Si4479   Si       0.88211    0.03767    0.67172    1.000
    N4480    N        0.91816    0.03676    0.64706    1.000
    N4481    N        0.98198    0.05875    0.64394    1.000
    Si4482   Si       0.97869    0.02055    0.73592    1.000
    N4483    N        0.95286    0.04076    0.70712    1.000
    Si4484   Si       0.95611    0.03296    0.66577    1.000
    Si4485   Si       0.78752    0.04307    0.86101    1.000
    N4486    N        0.83688    0.05046    0.78439    1.000
    N4487    N        0.78452    0.04176    0.81696    1.000
    N4488    N        0.76526    0.03671    0.75426    1.000
    Si4489   Si       0.82738    0.02709    0.81875    1.000
    N4490    N        0.83050    0.05291    0.85478    1.000
    Si4491   Si       0.79589    0.05901    0.77781    1.000
    Si4492   Si       0.73298    0.04200    0.78557    1.000
    N4493    N        0.91063    0.04688    0.76308    1.000
    N4494    N        0.94109    0.04078    0.87176    1.000
    Si4495   Si       0.87635    0.06651    0.78137    1.000
    Si4496   Si       0.95743    0.00839    0.84865    1.000
    Si4497   Si       0.83519    0.03904    0.96684    1.000
    Si4498   Si       0.76402    0.02343    0.95637    1.000
    N4499    N        0.80193    0.04062    0.93989    1.000
    N4500    N        0.74719    0.06705    0.95366    1.000
    N4501    N        0.76375    0.06842    0.88728    1.000
    N4502    N        0.97441    0.01220    0.98227    1.000
    N4503    N        0.88189    0.06577    0.89588    1.000
    N4504    N        0.91564    0.02803    0.93715    1.000
    Si4505   Si       0.90641    0.02884    0.89502    1.000
    N4506    N        0.79378    0.08821    0.05727    1.000
    Si4507   Si       0.76225    0.08641    0.09054    1.000
    Si4508   Si       0.80805    0.09941    0.01592    1.000
    N4509    N        0.85390    0.10714    0.09113    1.000
    N4510    N        0.84559    0.11773    0.01009    1.000
    N4511    N        0.78272    0.11705    0.11555    1.000
    Si4512   Si       0.81480    0.11834    0.08371    1.000
    Si4513   Si       0.86156    0.06673    0.07794    1.000
    Si4514   Si       0.95164    0.08628    0.02761    1.000
    N4515    N        0.95767    0.10963    0.06428    1.000
    Si4516   Si       0.97662    0.09655    0.10322    1.000
    Si4517   Si       0.87761    0.08684    0.00506    1.000
    N4518    N        0.91852    0.10041    0.00398    1.000
    N4519    N        0.76908    0.09252    0.17612    1.000
    N4520    N        0.74411    0.07952    0.23512    1.000
    N4521    N        0.79423    0.12551    0.24012    1.000
    Si4522   Si       0.79295    0.12342    0.15803    1.000
    N4523    N        0.83229    0.12474    0.16996    1.000
    N4524    N        0.97710    0.07580    0.21286    1.000
    Si4525   Si       0.91309    0.06946    0.14172    1.000
    Si4526   Si       0.86846    0.10830    0.18721    1.000
    N4527    N        0.92895    0.11776    0.23058    1.000
    N4528    N        0.89758    0.10884    0.15279    1.000
    N4529    N        0.97040    0.12849    0.13104    1.000
    Si4530   Si       0.77026    0.11169    0.31922    1.000
    N4531    N        0.78626    0.08028    0.29256    1.000
    Si4532   Si       0.78334    0.08391    0.24996    1.000
    N4533    N        0.87946    0.07157    0.26056    1.000
    N4534    N        0.89324    0.08728    0.32983    1.000
    Si4535   Si       0.97204    0.08807    0.32004    1.000
    Si4536   Si       0.89505    0.11237    0.25599    1.000
    Si4537   Si       0.91500    0.07367    0.36520    1.000
    N4538    N        0.95468    0.07445    0.28313    1.000
    Si4539   Si       0.90782    0.12766    0.32782    1.000
    Si4540   Si       0.96099    0.09606    0.24661    1.000
    N4541    N        0.95279    0.12562    0.33150    1.000
    Si4542   Si       0.84748    0.11521    0.46061    1.000
    Si4543   Si       0.77667    0.08887    0.47245    1.000
    N4544    N        0.81949    0.08308    0.47504    1.000
    N4545    N        0.76285    0.10918    0.43825    1.000
    N4546    N        0.86487    0.12488    0.49888    1.000
    Si4547   Si       0.91853    0.09735    0.43742    1.000
    N4548    N        0.87582    0.09090    0.44004    1.000
    N4549    N        0.92081    0.10627    0.39493    1.000
    Si4550   Si       0.95031    0.10361    0.48877    1.000
    N4551    N        0.95340    0.07697    0.45307    1.000
    N4552    N        0.82825    0.09283    0.59007    1.000
    N4553    N        0.75826    0.11247    0.50838    1.000
    Si4554   Si       0.74854    0.08317    0.53843    1.000
    N4555    N        0.92620    0.09180    0.52298    1.000
    Si4556   Si       0.88325    0.09952    0.53075    1.000
    N4557    N        0.97373    0.07144    0.56957    1.000
    N4558    N        0.98602    0.11983    0.50654    1.000
    N4559    N        0.79888    0.09268    0.65271    1.000
    Si4560   Si       0.83696    0.08826    0.63253    1.000
    N4561    N        0.76208    0.08971    0.71214    1.000
    Si4562   Si       0.79212    0.11359    0.69012    1.000
    N4563    N        0.82827    0.10807    0.71265    1.000
    N4564    N        0.86335    0.11737    0.65394    1.000
    Si4565   Si       0.87024    0.10901    0.69660    1.000
    N4566    N        0.94340    0.10228    0.74026    1.000
    N4567    N        0.89029    0.06896    0.70010    1.000
    Si4568   Si       0.92361    0.06525    0.72651    1.000
    N4569    N        0.79136    0.09997    0.76951    1.000
    Si4570   Si       0.75322    0.10834    0.75135    1.000
    Si4571   Si       0.83052    0.11573    0.75472    1.000
    Si4572   Si       0.86230    0.08025    0.85932    1.000
    N4573    N        0.84382    0.12021    0.86651    1.000
    N4574    N        0.87155    0.10301    0.75949    1.000
    Si4575   Si       0.97552    0.08899    0.76766    1.000
    N4576    N        0.96447    0.08926    0.80915    1.000
    N4577    N        0.93131    0.11404    0.86217    1.000
    Si4578   Si       0.92467    0.10652    0.82202    1.000
    N4579    N        0.88827    0.07990    0.82219    1.000
    Si4580   Si       0.77968    0.07540    0.92614    1.000
    N4581    N        0.79464    0.11707    0.92518    1.000
    N4582    N        0.77504    0.11582    0.99369    1.000
    Si4583   Si       0.74177    0.08766    0.99284    1.000
    N4584    N        0.86832    0.06753    0.96664    1.000
    Si4585   Si       0.95005    0.08375    0.88435    1.000
    Si4586   Si       0.96194    0.12088    0.94293    1.000
    N4587    N        0.93403    0.09195    0.92518    1.000
    Si4588   Si       0.90075    0.06819    0.93797    1.000
    N4589    N        0.81468    0.15920    0.07553    1.000
    Si4590   Si       0.76267    0.15892    0.11908    1.000
    N4591    N        0.74408    0.17516    0.08257    1.000
    N4592    N        0.91739    0.16412    0.03533    1.000
    Si4593   Si       0.94196    0.15019    0.07032    1.000
    N4594    N        0.91395    0.14472    0.10370    1.000
    N4595    N        0.97385    0.17537    0.06412    1.000
    Si4596   Si       0.92078    0.14313    0.99705    1.000
    N4597    N        0.83706    0.18402    0.21084    1.000
    Si4598   Si       0.83403    0.17196    0.16687    1.000
    N4599    N        0.79225    0.16799    0.15104    1.000
    Si4600   Si       0.83108    0.14857    0.23643    1.000
    N4601    N        0.86159    0.16986    0.13450    1.000
    N4602    N        0.86682    0.12750    0.22612    1.000
    Si4603   Si       0.87431    0.13100    0.12002    1.000
    N4604    N        0.95285    0.18029    0.24384    1.000
    N4605    N        0.92474    0.16543    0.17537    1.000
    Si4606   Si       0.94517    0.15166    0.21087    1.000
    Si4607   Si       0.92953    0.13974    0.14256    1.000
    N4608    N        0.98715    0.14378    0.19757    1.000
    N4609    N        0.83393    0.16739    0.27511    1.000
    Si4610   Si       0.79754    0.17618    0.36217    1.000
    N4611    N        0.79703    0.13831    0.34199    1.000
    Si4612   Si       0.76037    0.15011    0.25249    1.000
    N4613    N        0.74662    0.13644    0.29193    1.000
    N4614    N        0.89532    0.14113    0.28877    1.000
    N4615    N        0.89148    0.15314    0.35821    1.000
    Si4616   Si       0.97417    0.15933    0.34955    1.000
    Si4617   Si       0.87615    0.18001    0.28200    1.000
    N4618    N        0.77210    0.17259    0.40000    1.000
    N4619    N        0.77580    0.16815    0.47508    1.000
    Si4620   Si       0.78040    0.14940    0.43745    1.000
    N4621    N        0.82335    0.14164    0.43721    1.000
    Si4622   Si       0.84281    0.17658    0.42174    1.000
    N4623    N        0.92732    0.13250    0.46299    1.000
    Si4624   Si       0.91050    0.14886    0.39623    1.000
    Si4625   Si       0.91359    0.17512    0.46227    1.000
    N4626    N        0.88609    0.16825    0.42734    1.000
    N4627    N        0.94916    0.16462    0.38737    1.000
    Si4628   Si       0.97709    0.18668    0.41485    1.000
    Si4629   Si       0.77287    0.15320    0.51605    1.000
    N4630    N        0.81034    0.14688    0.54023    1.000
    N4631    N        0.82774    0.15702    0.61216    1.000
    Si4632   Si       0.83423    0.13392    0.57551    1.000
    N4633    N        0.74522    0.16794    0.54649    1.000
    N4634    N        0.75359    0.16159    0.61525    1.000
    Si4635   Si       0.86584    0.16086    0.52242    1.000
    Si4636   Si       0.79283    0.18163    0.61521    1.000
    Si4637   Si       0.96383    0.18121    0.59005    1.000
    Si4638   Si       0.89010    0.17191    0.58113    1.000
    N4639    N        0.87677    0.13110    0.56141    1.000
    N4640    N        0.90226    0.18035    0.50327    1.000
    N4641    N        0.92782    0.18458    0.56549    1.000
    N4642    N        0.89325    0.17964    0.62451    1.000
    N4643    N        0.85049    0.18168    0.67823    1.000
    N4644    N        0.78290    0.15529    0.69014    1.000
    Si4645   Si       0.85920    0.15963    0.64273    1.000
    Si4646   Si       0.74110    0.16431    0.70056    1.000
    Si4647   Si       0.88113    0.18626    0.70775    1.000
    N4648    N        0.95735    0.17380    0.63231    1.000
    N4649    N        0.89251    0.14342    0.71433    1.000
    Si4650   Si       0.97255    0.13528    0.72450    1.000
    N4651    N        0.95521    0.17263    0.73922    1.000
    N4652    N        0.98187    0.12737    0.68286    1.000
    N4653    N        0.82793    0.15825    0.75813    1.000
    N4654    N        0.76431    0.13017    0.86572    1.000
    Si4655   Si       0.74146    0.16521    0.85367    1.000
    N4656    N        0.92358    0.13902    0.79196    1.000
    Si4657   Si       0.94875    0.17508    0.78347    1.000
    N4658    N        0.98673    0.17752    0.80354    1.000
    Si4659   Si       0.90651    0.12747    0.75284    1.000
    Si4660   Si       0.85721    0.16182    0.87249    1.000
    N4661    N        0.81858    0.17201    0.88659    1.000
    Si4662   Si       0.78140    0.14264    0.95989    1.000
    N4663    N        0.81277    0.16976    0.96943    1.000
    Si4664   Si       0.84869    0.15901    0.99291    1.000
    Si4665   Si       0.80359    0.13287    0.88197    1.000
    N4666    N        0.96664    0.14797    0.90888    1.000
    Si4667   Si       0.93344    0.15356    0.88047    1.000
    Si4668   Si       0.89160    0.17954    0.93749    1.000
    N4669    N        0.89452    0.15889    0.89913    1.000
    N4670    N        0.96140    0.14481    0.98158    1.000
    N4671    N        0.88754    0.15864    0.97354    1.000
    Si4672   Si       0.99098    0.17646    0.99023    1.000
    N4673    N        0.78922    0.21968    0.04672    1.000
    Si4674   Si       0.75493    0.21561    0.07456    1.000
    N4675    N        0.84954    0.22336    0.08675    1.000
    Si4676   Si       0.82392    0.19740    0.05940    1.000
    N4677    N        0.76904    0.22577    0.11408    1.000
    N4678    N        0.85217    0.18794    0.02806    1.000
    Si4679   Si       0.96108    0.21358    0.04788    1.000
    N4680    N        0.91989    0.22426    0.06383    1.000
    Si4681   Si       0.89482    0.20046    0.03586    1.000
    N4682    N        0.96328    0.20825    0.00430    1.000
    N4683    N        0.99152    0.24225    0.06020    1.000
    N4684    N        0.89740    0.22635    0.00031    1.000
    N4685    N        0.80768    0.24413    0.22014    1.000
    Si4686   Si       0.84964    0.22144    0.23052    1.000
    N4687    N        0.83133    0.22006    0.15682    1.000
    N4688    N        0.75464    0.21020    0.18610    1.000
    Si4689   Si       0.78414    0.21676    0.15377    1.000
    Si4690   Si       0.76641    0.22404    0.22465    1.000
    Si4691   Si       0.86075    0.21168    0.12663    1.000
    Si4692   Si       0.98361    0.24152    0.20841    1.000
    Si4693   Si       0.93151    0.21727    0.24477    1.000
    N4694    N        0.89853    0.23303    0.13457    1.000
    N4695    N        0.94020    0.23152    0.20434    1.000
    N4696    N        0.89059    0.20726    0.25067    1.000
    N4697    N        0.79274    0.20328    0.32576    1.000
    N4698    N        0.83438    0.23215    0.27420    1.000
    Si4699   Si       0.80475    0.19835    0.28408    1.000
    N4700    N        0.77469    0.19131    0.25305    1.000
    N4701    N        0.87419    0.20574    0.31840    1.000
    N4702    N        0.95949    0.19670    0.33221    1.000
    Si4703   Si       0.94144    0.22246    0.36259    1.000
    Si4704   Si       0.98218    0.22275    0.30421    1.000
    Si4705   Si       0.87460    0.19351    0.35929    1.000
    N4706    N        0.95006    0.23867    0.27959    1.000
    N4707    N        0.83668    0.18714    0.37843    1.000
    Si4708   Si       0.78959    0.21117    0.47595    1.000
    N4709    N        0.82589    0.20841    0.45016    1.000
    N4710    N        0.75834    0.24080    0.46228    1.000
    N4711    N        0.89145    0.23525    0.45468    1.000
    N4712    N        0.97435    0.22492    0.39053    1.000
    N4713    N        0.90290    0.21788    0.38030    1.000
    Si4714   Si       0.97708    0.21564    0.47292    1.000
    N4715    N        0.94926    0.19278    0.44736    1.000
    Si4716   Si       0.82418    0.21303    0.55070    1.000
    N4717    N        0.79268    0.20512    0.57912    1.000
    Si4718   Si       0.76137    0.20766    0.55031    1.000
    N4719    N        0.79440    0.21151    0.51765    1.000
    N4720    N        0.86038    0.19074    0.55391    1.000
    N4721    N        0.96430    0.21487    0.51513    1.000
    Si4722   Si       0.92371    0.20849    0.52973    1.000
    N4723    N        0.98755    0.21802    0.58054    1.000
    Si4724   Si       0.98325    0.24578    0.61070    1.000
    N4725    N        0.80201    0.21321    0.72406    1.000
    Si4726   Si       0.76179    0.22436    0.73866    1.000
    N4727    N        0.79740    0.21343    0.64842    1.000
    Si4728   Si       0.80795    0.19370    0.68653    1.000
    Si4729   Si       0.92653    0.20087    0.64345    1.000
    N4730    N        0.94323    0.23963    0.63042    1.000
    N4731    N        0.91601    0.20568    0.68789    1.000
    N4732    N        0.86987    0.21048    0.74301    1.000
    Si4733   Si       0.95614    0.20239    0.70764    1.000
    Si4734   Si       0.77297    0.22196    0.80743    1.000
    N4735    N        0.81345    0.21809    0.79323    1.000
    Si4736   Si       0.84261    0.22029    0.82632    1.000
    N4737    N        0.76603    0.19996    0.84552    1.000
    Si4738   Si       0.82846    0.20185    0.75710    1.000
    N4739    N        0.74813    0.20729    0.77612    1.000
    N4740    N        0.81962    0.23618    0.86035    1.000
    N4741    N        0.92272    0.20741    0.79464    1.000
    Si4742   Si       0.90624    0.21115    0.83602    1.000
    Si4743   Si       0.89399    0.23156    0.77369    1.000
    Si4744   Si       0.98330    0.20039    0.84286    1.000
    N4745    N        0.94128    0.18810    0.85427    1.000
    N4746    N        0.86880    0.18813    0.84030    1.000
    N4747    N        0.74106    0.22311    0.99131    1.000
    N4748    N        0.85759    0.20248    0.93056    1.000
    N4749    N        0.82551    0.23700    0.97752    1.000
    N4750    N        0.78540    0.21959    0.91978    1.000
    Si4751   Si       0.79287    0.20698    0.87915    1.000
    Si4752   Si       0.81820    0.20803    0.94615    1.000
    Si4753   Si       0.92231    0.23995    0.90358    1.000
    Si4754   Si       0.93405    0.22736    0.97799    1.000
    N4755    N        0.92292    0.21039    0.93659    1.000
    N4756    N        0.77529    0.27751    0.01698    1.000
    N4757    N        0.81348    0.28228    0.09662    1.000
    Si4758   Si       0.84642    0.26481    0.07516    1.000
    N4759    N        0.83847    0.26087    0.03386    1.000
    Si4760   Si       0.77725    0.26867    0.11760    1.000
    Si4761   Si       0.80330    0.24530    0.01515    1.000
    Si4762   Si       0.90301    0.29637    0.03847    1.000
    Si4763   Si       0.97057    0.27820    0.07194    1.000
    N4764    N        0.94301    0.28553    0.03865    1.000
    N4765    N        0.94747    0.27203    0.10891    1.000
    N4766    N        0.88582    0.28316    0.08029    1.000
    Si4767   Si       0.91116    0.25116    0.09773    1.000
    Si4768   Si       0.95914    0.29535    0.99980    1.000
    N4769    N        0.88422    0.29202    0.00067    1.000
    N4770    N        0.77929    0.29978    0.23557    1.000
    N4771    N        0.83415    0.29962    0.19015    1.000
    N4772    N        0.78638    0.26487    0.16098    1.000
    Si4773   Si       0.82937    0.25635    0.18176    1.000
    Si4774   Si       0.78667    0.29644    0.19239    1.000
    Si4775   Si       0.87934    0.29388    0.19654    1.000
    N4776    N        0.98619    0.27486    0.23351    1.000
    N4777    N        0.91544    0.28428    0.17168    1.000
    N4778    N        0.87028    0.24900    0.20002    1.000
    Si4779   Si       0.90791    0.23989    0.17683    1.000
    N4780    N        0.83062    0.26010    0.33961    1.000
    N4781    N        0.76051    0.25771    0.35664    1.000
    Si4782   Si       0.80769    0.26789    0.25770    1.000
    N4783    N        0.77767    0.25764    0.28793    1.000
    N4784    N        0.83482    0.30099    0.26404    1.000
    Si4785   Si       0.85913    0.24515    0.30727    1.000
    Si4786   Si       0.79040    0.24753    0.32819    1.000
    N4787    N        0.89112    0.27240    0.29831    1.000
    N4788    N        0.94455    0.26189    0.34159    1.000
    Si4789   Si       0.93373    0.27416    0.30041    1.000
    Si4790   Si       0.83881    0.28448    0.37624    1.000
    N4791    N        0.74393    0.29109    0.41706    1.000
    Si4792   Si       0.75894    0.28307    0.45765    1.000
    N4793    N        0.85594    0.26094    0.40808    1.000
    N4794    N        0.84502    0.26906    0.48412    1.000
    Si4795   Si       0.76259    0.29688    0.37844    1.000
    Si4796   Si       0.84644    0.24481    0.44873    1.000
    Si4797   Si       0.81815    0.30026    0.49442    1.000
    N4798    N        0.79526    0.30699    0.45887    1.000
    N4799    N        0.80368    0.30765    0.38781    1.000
    Si4800   Si       0.97823    0.29732    0.48297    1.000
    Si4801   Si       0.94440    0.29409    0.37171    1.000
    Si4802   Si       0.88838    0.26285    0.48906    1.000
    N4803    N        0.91329    0.29712    0.47731    1.000
    N4804    N        0.98748    0.25856    0.46191    1.000
    N4805    N        0.98731    0.29651    0.38317    1.000
    N4806    N        0.92594    0.27990    0.40698    1.000
    Si4807   Si       0.89664    0.24767    0.41229    1.000
    N4808    N        0.78507    0.27030    0.60375    1.000
    Si4809   Si       0.80791    0.27928    0.56670    1.000
    N4810    N        0.84046    0.25192    0.56145    1.000
    N4811    N        0.79185    0.29114    0.52774    1.000
    Si4812   Si       0.74318    0.27482    0.58829    1.000
    Si4813   Si       0.88251    0.26930    0.55932    1.000
    N4814    N        0.89707    0.27832    0.59975    1.000
    N4815    N        0.97677    0.28346    0.58933    1.000
    N4816    N        0.90006    0.24589    0.52634    1.000
    Si4817   Si       0.75089    0.28851    0.70643    1.000
    N4818    N        0.82728    0.28257    0.65135    1.000
    N4819    N        0.75533    0.26020    0.67241    1.000
    Si4820   Si       0.79151    0.25711    0.64654    1.000
    N4821    N        0.75662    0.26781    0.74439    1.000
    Si4822   Si       0.86323    0.29933    0.66705    1.000
    N4823    N        0.89758    0.27173    0.67247    1.000
    Si4824   Si       0.92168    0.27805    0.63501    1.000
    N4825    N        0.95791    0.24921    0.70243    1.000
    Si4826   Si       0.91536    0.25120    0.70369    1.000
    Si4827   Si       0.98847    0.27068    0.72402    1.000
    Si4828   Si       0.77198    0.29086    0.77771    1.000
    N4829    N        0.76448    0.26535    0.81081    1.000
    N4830    N        0.81354    0.30043    0.76487    1.000
    Si4831   Si       0.80600    0.27739    0.86833    1.000
    N4832    N        0.82038    0.30364    0.83598    1.000
    Si4833   Si       0.96600    0.27126    0.85390    1.000
    Si4834   Si       0.89595    0.27853    0.83369    1.000
    N4835    N        0.93839    0.27977    0.81991    1.000
    Si4836   Si       0.94244    0.28306    0.77754    1.000
    N4837    N        0.98258    0.26937    0.76781    1.000
    N4838    N        0.91419    0.26025    0.74794    1.000
    N4839    N        0.90827    0.24377    0.86315    1.000
    N4840    N        0.87457    0.24551    0.81007    1.000
    N4841    N        0.76272    0.27314    0.87933    1.000
    Si4842   Si       0.75645    0.25393    0.91774    1.000
    N4843    N        0.76501    0.28531    0.94578    1.000
    N4844    N        0.82564    0.29073    0.90561    1.000
    Si4845   Si       0.86330    0.25379    0.99613    1.000
    Si4846   Si       0.86876    0.29856    0.90665    1.000
    N4847    N        0.96155    0.25892    0.89674    1.000
    N4848    N        0.95142    0.26517    0.96968    1.000
    Si4849   Si       0.97310    0.27725    0.93381    1.000
    N4850    N        0.89517    0.26835    0.92231    1.000
    N4851    N        0.81277    0.33522    0.04024    1.000
    Si4852   Si       0.81562    0.32572    0.08126    1.000
    N4853    N        0.78202    0.34120    0.10136    1.000
    N4854    N        0.85151    0.34307    0.09608    1.000
    Si4855   Si       0.79501    0.31389    0.00690    1.000
    Si4856   Si       0.89139    0.32823    0.09090    1.000
    N4857    N        0.90356    0.33910    0.05145    1.000
    Si4858   Si       0.91669    0.36072    0.01525    1.000
    N4859    N        0.76915    0.33047    0.17278    1.000
    Si4860   Si       0.83725    0.34409    0.19051    1.000
    N4861    N        0.81499    0.35841    0.22399    1.000
    N4862    N        0.74702    0.35943    0.23171    1.000
    N4863    N        0.82227    0.35831    0.15205    1.000
    Si4864   Si       0.73937    0.31618    0.23911    1.000
    N4865    N        0.89643    0.30570    0.23590    1.000
    N4866    N        0.91253    0.33303    0.12652    1.000
    Si4867   Si       0.94018    0.30141    0.14073    1.000
    N4868    N        0.88085    0.34343    0.18951    1.000
    Si4869   Si       0.98578    0.34517    0.18830    1.000
    Si4870   Si       0.91332    0.34408    0.22126    1.000
    N4871    N        0.97589    0.32458    0.15125    1.000
    N4872    N        0.95500    0.33746    0.22027    1.000
    Si4873   Si       0.80484    0.33016    0.25464    1.000
    N4874    N        0.79153    0.34947    0.29130    1.000
    N4875    N        0.74678    0.33438    0.35864    1.000
    Si4876   Si       0.76070    0.35731    0.32389    1.000
    N4877    N        0.88293    0.33834    0.29919    1.000
    N4878    N        0.93040    0.32904    0.35059    1.000
    Si4879   Si       0.95146    0.34680    0.31634    1.000
    Si4880   Si       0.88958    0.34143    0.34032    1.000
    N4881    N        0.95096    0.31265    0.28812    1.000
    Si4882   Si       0.97707    0.31357    0.25097    1.000
    N4883    N        0.86791    0.31438    0.36829    1.000
    N4884    N        0.99009    0.36154    0.32790    1.000
    Si4885   Si       0.87696    0.30469    0.27368    1.000
    Si4886   Si       0.80319    0.33234    0.42330    1.000
    N4887    N        0.83979    0.35385    0.42678    1.000
    N4888    N        0.76624    0.35721    0.41937    1.000
    N4889    N        0.96490    0.32263    0.44791    1.000
    N4890    N        0.90755    0.34495    0.41872    1.000
    Si4891   Si       0.92514    0.31035    0.43689    1.000
    Si4892   Si       0.86980    0.34749    0.39599    1.000
    N4893    N        0.82789    0.31650    0.58081    1.000
    Si4894   Si       0.75828    0.31629    0.52552    1.000
    Si4895   Si       0.74776    0.34415    0.59992    1.000
    Si4896   Si       0.85321    0.33524    0.55194    1.000
    N4897    N        0.83254    0.33925    0.51177    1.000
    N4898    N        0.74554    0.31404    0.56786    1.000
    N4899    N        0.76290    0.35873    0.51414    1.000
    Si4900   Si       0.81121    0.31165    0.62098    1.000
    N4901    N        0.88630    0.30920    0.53955    1.000
    Si4902   Si       0.92013    0.31738    0.51531    1.000
    N4903    N        0.98131    0.35926    0.60208    1.000
    Si4904   Si       0.98026    0.31852    0.61620    1.000
    N4905    N        0.96124    0.30455    0.52233    1.000
    N4906    N        0.91693    0.35933    0.50496    1.000
    N4907    N        0.82425    0.34689    0.64901    1.000
    N4908    N        0.76810    0.32660    0.63269    1.000
    Si4909   Si       0.78522    0.34355    0.66670    1.000
    Si4910   Si       0.81816    0.32247    0.72543    1.000
    N4911    N        0.78290    0.31632    0.70163    1.000
    N4912    N        0.85673    0.31614    0.70750    1.000
    N4913    N        0.94524    0.31291    0.64258    1.000
    N4914    N        0.98780    0.31343    0.71167    1.000
    Si4915   Si       0.88450    0.35083    0.71821    1.000
    N4916    N        0.92634    0.34958    0.70494    1.000
    N4917    N        0.88627    0.33296    0.64992    1.000
    Si4918   Si       0.92675    0.34830    0.66196    1.000
    Si4919   Si       0.95891    0.34091    0.73110    1.000
    N4920    N        0.75901    0.33322    0.78521    1.000
    Si4921   Si       0.81656    0.34655    0.84484    1.000
    N4922    N        0.77580    0.34754    0.85777    1.000
    Si4923   Si       0.74591    0.34257    0.82686    1.000
    Si4924   Si       0.84044    0.31271    0.79809    1.000
    N4925    N        0.83320    0.35642    0.80522    1.000
    N4926    N        0.93961    0.32382    0.76475    1.000
    Si4927   Si       0.90538    0.34046    0.78609    1.000
    Si4928   Si       0.88347    0.35044    0.86119    1.000
    N4929    N        0.88440    0.30758    0.86643    1.000
    N4930    N        0.88197    0.30622    0.79613    1.000
    N4931    N        0.76169    0.33803    0.99234    1.000
    N4932    N        0.78710    0.34498    0.93062    1.000
    N4933    N        0.82348    0.31098    0.97488    1.000
    Si4934   Si       0.80314    0.30651    0.93888    1.000
    Si4935   Si       0.86677    0.32256    0.97663    1.000
    N4936    N        0.94159    0.33336    0.99222    1.000
    N4937    N        0.87726    0.32904    0.93555    1.000
    Si4938   Si       0.95871    0.35233    0.95701    1.000
    N4939    N        0.96923    0.32015    0.92944    1.000
    N4940    N        0.76987    0.39263    0.04705    1.000
    N4941    N        0.83150    0.40512    0.05641    1.000
    Si4942   Si       0.80691    0.37721    0.03145    1.000
    N4943    N        0.79590    0.40385    0.11830    1.000
    Si4944   Si       0.79254    0.41480    0.07709    1.000
    Si4945   Si       0.83371    0.37971    0.11733    1.000
    Si4946   Si       0.98520    0.39229    0.00872    1.000
    N4947    N        0.94209    0.39509    0.02213    1.000
    N4948    N        0.96362    0.41565    0.08559    1.000
    N4949    N        0.76652    0.39562    0.18069    1.000
    Si4950   Si       0.78171    0.38669    0.22185    1.000
    Si4951   Si       0.78093    0.36065    0.14167    1.000
    N4952    N        0.91920    0.39163    0.17125    1.000
    N4953    N        0.89904    0.37849    0.24302    1.000
    Si4954   Si       0.89287    0.36284    0.15049    1.000
    N4955    N        0.87114    0.39848    0.13218    1.000
    Si4956   Si       0.95525    0.41012    0.18257    1.000
    N4957    N        0.78656    0.39331    0.33509    1.000
    N4958    N        0.84978    0.39391    0.29430    1.000
    Si4959   Si       0.80817    0.39064    0.29639    1.000
    N4960    N        0.78874    0.40959    0.25844    1.000
    Si4961   Si       0.77765    0.41532    0.36925    1.000
    N4962    N        0.92574    0.38363    0.30626    1.000
    Si4963   Si       0.88728    0.37883    0.28599    1.000
    N4964    N        0.87465    0.37531    0.36327    1.000
    N4965    N        0.98598    0.42186    0.35238    1.000
    N4966    N        0.80222    0.39329    0.46808    1.000
    Si4967   Si       0.83796    0.39573    0.43985    1.000
    Si4968   Si       0.77120    0.39583    0.43903    1.000
    N4969    N        0.80005    0.41524    0.40908    1.000
    N4970    N        0.85990    0.40835    0.47878    1.000
    Si4971   Si       0.89034    0.41346    0.37478    1.000
    N4972    N        0.97897    0.36430    0.39820    1.000
    N4973    N        0.94487    0.40197    0.45642    1.000
    N4974    N        0.92459    0.40740    0.39952    1.000
    Si4975   Si       0.94382    0.37454    0.42019    1.000
    Si4976   Si       0.95398    0.38090    0.49570    1.000
    N4977    N        0.76614    0.38473    0.59340    1.000
    N4978    N        0.80296    0.40717    0.53000    1.000
    Si4979   Si       0.77497    0.41397    0.56231    1.000
    Si4980   Si       0.80441    0.37063    0.50585    1.000
    N4981    N        0.86911    0.37703    0.55415    1.000
    Si4982   Si       0.88384    0.38841    0.51297    1.000
    Si4983   Si       0.87482    0.40653    0.58661    1.000
    N4984    N        0.96270    0.40183    0.53343    1.000
    N4985    N        0.91572    0.42211    0.59264    1.000
    Si4986   Si       0.85997    0.36806    0.65455    1.000
    Si4987   Si       0.76742    0.40596    0.63108    1.000
    N4988    N        0.76705    0.38269    0.66775    1.000
    Si4989   Si       0.75207    0.39927    0.70455    1.000
    N4990    N        0.85651    0.40129    0.62705    1.000
    N4991    N        0.81021    0.36218    0.73963    1.000
    N4992    N        0.98343    0.37466    0.74390    1.000
    N4993    N        0.86701    0.38304    0.69410    1.000
    N4994    N        0.93349    0.39233    0.65460    1.000
    N4995    N        0.77864    0.40396    0.77857    1.000
    Si4996   Si       0.83921    0.37663    0.76908    1.000
    Si4997   Si       0.74529    0.41727    0.80066    1.000
    N4998    N        0.84386    0.37007    0.87125    1.000
    Si4999   Si       0.77189    0.36507    0.75961    1.000
    N5000    N        0.98383    0.36808    0.81491    1.000
    Si5001   Si       0.91616    0.40461    0.82518    1.000
    Si5002   Si       0.97916    0.39646    0.78259    1.000
    N5003    N        0.94812    0.41041    0.85543    1.000
    N5004    N        0.93769    0.40988    0.78556    1.000
    N5005    N        0.87902    0.36255    0.75799    1.000
    N5006    N        0.90667    0.36225    0.82323    1.000
    Si5007   Si       0.76440    0.36151    0.89630    1.000
    N5008    N        0.81101    0.38391    0.98979    1.000
    N5009    N        0.74715    0.39878    0.95222    1.000
    Si5010   Si       0.85083    0.39437    0.97849    1.000
    N5011    N        0.78622    0.40115    0.89617    1.000
    Si5012   Si       0.83350    0.40128    0.89893    1.000
    N5013    N        0.85687    0.39575    0.93569    1.000
    Si5014   Si       0.77656    0.36997    0.96554    1.000
    N5015    N        0.98458    0.37457    0.89087    1.000
    N5016    N        0.93148    0.38581    0.94288    1.000
    Si5017   Si       0.89190    0.36958    0.93014    1.000
    Si5018   Si       0.94599    0.39210    0.89746    1.000
    N5019    N        0.90826    0.37014    0.88844    1.000
    N5020    N        0.87933    0.36225    0.99078    1.000
    N5021    N        0.78217    0.45722    0.07022    1.000
    N5022    N        0.84315    0.46041    0.10156    1.000
    Si5023   Si       0.85877    0.43781    0.04210    1.000
    N5024    N        0.77524    0.47939    0.99705    1.000
    N5025    N        0.86764    0.42795    0.99990    1.000
    N5026    N        0.89440    0.43376    0.06696    1.000
    N5027    N        0.95086    0.46166    0.03765    1.000
    Si5028   Si       0.87817    0.43512    0.10668    1.000
    Si5029   Si       0.97725    0.44379    0.11684    1.000
    Si5030   Si       0.93520    0.42414    0.05309    1.000
    Si5031   Si       0.98557    0.45417    0.01314    1.000
    N5032    N        0.79465    0.45734    0.16023    1.000
    N5033    N        0.81278    0.46588    0.22466    1.000
    Si5034   Si       0.85444    0.47403    0.20869    1.000
    Si5035   Si       0.78257    0.47689    0.19602    1.000
    Si5036   Si       0.82666    0.47737    0.13835    1.000
    Si5037   Si       0.77109    0.42444    0.14880    1.000
    N5038    N        0.74077    0.46435    0.20182    1.000
    N5039    N        0.96361    0.44599    0.15872    1.000
    Si5040   Si       0.88920    0.42397    0.16453    1.000
    N5041    N        0.87623    0.43571    0.20470    1.000
    N5042    N        0.94185    0.43189    0.21969    1.000
    N5043    N        0.90052    0.45633    0.13784    1.000
    Si5044   Si       0.90304    0.42081    0.23400    1.000
    Si5045   Si       0.79254    0.45343    0.25998    1.000
    N5046    N        0.81466    0.46186    0.29679    1.000
    N5047    N        0.75449    0.47287    0.26791    1.000
    N5048    N        0.78483    0.45773    0.36650    1.000
    N5049    N        0.84674    0.46644    0.35971    1.000
    Si5050   Si       0.81177    0.47365    0.33702    1.000
    N5051    N        0.90363    0.43925    0.27282    1.000
    N5052    N        0.90715    0.43894    0.34319    1.000
    N5053    N        0.96946    0.43826    0.28874    1.000
    Si5054   Si       0.95563    0.45841    0.25151    1.000
    Si5055   Si       0.93213    0.42603    0.30683    1.000
    Si5056   Si       0.88751    0.47792    0.34597    1.000
    N5057    N        0.86036    0.42131    0.40948    1.000
    Si5058   Si       0.82829    0.44910    0.39653    1.000
    N5059    N        0.77819    0.45535    0.48294    1.000
    Si5060   Si       0.81242    0.43162    0.49314    1.000
    Si5061   Si       0.88048    0.45526    0.49513    1.000
    N5062    N        0.95346    0.46458    0.40650    1.000
    Si5063   Si       0.98580    0.45549    0.37836    1.000
    N5064    N        0.90602    0.46051    0.45647    1.000
    Si5065   Si       0.93140    0.43563    0.43157    1.000
    N5066    N        0.78323    0.45577    0.57338    1.000
    Si5067   Si       0.82264    0.46291    0.55222    1.000
    N5068    N        0.85239    0.44340    0.57707    1.000
    N5069    N        0.83941    0.45881    0.51238    1.000
    Si5070   Si       0.77186    0.47491    0.61446    1.000
    N5071    N        0.95116    0.46580    0.54483    1.000
    Si5072   Si       0.93340    0.42683    0.55325    1.000
    Si5073   Si       0.98276    0.47293    0.51688    1.000
    N5074    N        0.90144    0.42607    0.52380    1.000
    Si5075   Si       0.83579    0.43571    0.64353    1.000
    N5076    N        0.79239    0.44184    0.63965    1.000
    Si5077   Si       0.79170    0.45778    0.68336    1.000
    N5078    N        0.83853    0.44430    0.68687    1.000
    N5079    N        0.78028    0.42736    0.71418    1.000
    N5080    N        0.74933    0.47492    0.67282    1.000
    N5081    N        0.85517    0.47396    0.63683    1.000
    Si5082   Si       0.86195    0.41965    0.71708    1.000
    N5083    N        0.98598    0.42798    0.62690    1.000
    N5084    N        0.92545    0.45516    0.66111    1.000
    Si5085   Si       0.97436    0.47097    0.72639    1.000
    N5086    N        0.97230    0.43167    0.70585    1.000
    Si5087   Si       0.93292    0.42145    0.68781    1.000
    Si5088   Si       0.94026    0.42861    0.62864    1.000
    N5089    N        0.90619    0.42812    0.72161    1.000
    N5090    N        0.75305    0.45170    0.82295    1.000
    Si5091   Si       0.79826    0.43264    0.75241    1.000
    Si5092   Si       0.85833    0.44405    0.79348    1.000
    N5093    N        0.84140    0.47110    0.82232    1.000
    N5094    N        0.79252    0.47323    0.76400    1.000
    N5095    N        0.84101    0.41956    0.75652    1.000
    Si5096   Si       0.86272    0.45764    0.85833    1.000
    N5097    N        0.88503    0.46768    0.76912    1.000
    Si5098   Si       0.92069    0.44161    0.75936    1.000
    N5099    N        0.96941    0.47082    0.84109    1.000
    N5100    N        0.95008    0.47460    0.76104    1.000
    N5101    N        0.87999    0.42563    0.82598    1.000
    N5102    N        0.83815    0.44549    0.89449    1.000
    N5103    N        0.77520    0.46013    0.93032    1.000
    Si5104   Si       0.81850    0.47176    0.92398    1.000
    Si5105   Si       0.75606    0.42477    0.91542    1.000
    N5106    N        0.83685    0.47248    0.96313    1.000
    N5107    N        0.96310    0.43419    0.91156    1.000
    N5108    N        0.90937    0.45746    0.94367    1.000
    Si5109   Si       0.94623    0.45003    0.87401    1.000
    Si5110   Si       0.87732    0.46198    0.97175    1.000
    N5111    N        0.90349    0.45895    0.87586    1.000
    N5112    N        0.97345    0.43835    0.97395    1.000
    Si5113   Si       0.93889    0.42860    0.94991    1.000
    N5114    N        0.78542    0.51706    0.05544    1.000
    Si5115   Si       0.81210    0.48856    0.07773    1.000
    N5116    N        0.80804    0.51035    0.11856    1.000
    Si5117   Si       0.76300    0.47943    0.03958    1.000
    Si5118   Si       0.81837    0.49101    0.99731    1.000
    N5119    N        0.83508    0.53019    0.00277    1.000
    N5120    N        0.83935    0.47697    0.03536    1.000
    N5121    N        0.89232    0.49563    0.99538    1.000
    Si5122   Si       0.87171    0.50872    0.03029    1.000
    Si5123   Si       0.95347    0.49743    0.06243    1.000
    N5124    N        0.91086    0.50940    0.05767    1.000
    N5125    N        0.97614    0.53192    0.04977    1.000
    N5126    N        0.97061    0.48406    0.09995    1.000
    N5127    N        0.78707    0.51875    0.18822    1.000
    N5128    N        0.85384    0.49092    0.16988    1.000
    Si5129   Si       0.79205    0.53658    0.14784    1.000
    N5130    N        0.92195    0.50415    0.18445    1.000
    Si5131   Si       0.89386    0.49905    0.15197    1.000
    N5132    N        0.89893    0.53156    0.12292    1.000
    N5133    N        0.98513    0.51054    0.16793    1.000
    Si5134   Si       0.96028    0.48017    0.18636    1.000
    N5135    N        0.86928    0.49826    0.23968    1.000
    N5136    N        0.98400    0.47586    0.22122    1.000
    N5137    N        0.79289    0.51159    0.34262    1.000
    Si5138   Si       0.74474    0.51588    0.26905    1.000
    Si5139   Si       0.75827    0.49594    0.37166    1.000
    N5140    N        0.88005    0.49997    0.30891    1.000
    N5141    N        0.93660    0.49596    0.26350    1.000
    N5142    N        0.97789    0.49276    0.35529    1.000
    Si5143   Si       0.89610    0.48414    0.27073    1.000
    Si5144   Si       0.96727    0.53058    0.26033    1.000
    N5145    N        0.82157    0.48179    0.42415    1.000
    Si5146   Si       0.79534    0.51526    0.42932    1.000
    N5147    N        0.78590    0.52452    0.47046    1.000
    N5148    N        0.75742    0.49723    0.41663    1.000
    Si5149   Si       0.76097    0.49376    0.48667    1.000
    N5150    N        0.90415    0.50714    0.37225    1.000
    N5151    N        0.91046    0.53674    0.46041    1.000
    Si5152   Si       0.94565    0.50281    0.38302    1.000
    N5153    N        0.96654    0.49622    0.48114    1.000
    Si5154   Si       0.92454    0.49773    0.47238    1.000
    N5155    N        0.83234    0.50266    0.56898    1.000
    N5156    N        0.74500    0.49557    0.52665    1.000
    Si5157   Si       0.86369    0.48225    0.59639    1.000
    N5158    N        0.90026    0.49184    0.50920    1.000
    Si5159   Si       0.92097    0.49760    0.54647    1.000
    N5160    N        0.89766    0.50377    0.58327    1.000
    N5161    N        0.78907    0.51448    0.62646    1.000
    N5162    N        0.80854    0.49656    0.69612    1.000
    Si5163   Si       0.85335    0.48741    0.67908    1.000
    Si5164   Si       0.80496    0.50793    0.73798    1.000
    Si5165   Si       0.80596    0.52870    0.66384    1.000
    N5166    N        0.84866    0.53186    0.66603    1.000
    N5167    N        0.77512    0.53754    0.74305    1.000
    Si5168   Si       0.87892    0.50585    0.74559    1.000
    N5169    N        0.96366    0.50262    0.69949    1.000
    Si5170   Si       0.92390    0.49415    0.68235    1.000
    N5171    N        0.88791    0.49261    0.70385    1.000
    N5172    N        0.91735    0.53182    0.65897    1.000
    Si5173   Si       0.83178    0.51361    0.83484    1.000
    N5174    N        0.78772    0.51235    0.83261    1.000
    Si5175   Si       0.76980    0.48393    0.80014    1.000
    N5176    N        0.85898    0.50893    0.87028    1.000
    N5177    N        0.84402    0.52692    0.75240    1.000
    Si5178   Si       0.75613    0.53493    0.85203    1.000
    Si5179   Si       0.94737    0.51523    0.77525    1.000
    Si5180   Si       0.95908    0.51026    0.85328    1.000
    N5181    N        0.94489    0.52727    0.81581    1.000
    N5182    N        0.91139    0.53202    0.75570    1.000
    N5183    N        0.98653    0.53317    0.76540    1.000
    N5184    N        0.81721    0.51733    0.92035    1.000
    Si5185   Si       0.85183    0.53649    0.90470    1.000
    N5186    N        0.74222    0.51796    0.94027    1.000
    Si5187   Si       0.75112    0.47797    0.96099    1.000
    Si5188   Si       0.90600    0.52680    0.96637    1.000
    Si5189   Si       0.95577    0.54014    0.91421    1.000
    N5190    N        0.94968    0.52375    0.95829    1.000
    Si5191   Si       0.90615    0.48740    0.90984    1.000
    N5192    N        0.88698    0.52113    0.92976    1.000
    N5193    N        0.94338    0.50221    0.89341    1.000
    Si5194   Si       0.76398    0.55200    0.04177    1.000
    N5195    N        0.79584    0.58023    0.03453    1.000
    Si5196   Si       0.83539    0.56215    0.03032    1.000
    Si5197   Si       0.76078    0.58958    0.10692    1.000
    N5198    N        0.85703    0.54001    0.05978    1.000
    N5199    N        0.73892    0.57328    0.07159    1.000
    N5200    N        0.92597    0.57354    0.08218    1.000
    Si5201   Si       0.96845    0.56833    0.07094    1.000
    N5202    N        0.97517    0.55245    0.11351    1.000
    Si5203   Si       0.89425    0.54082    0.08189    1.000
    N5204    N        0.82557    0.55334    0.23724    1.000
    N5205    N        0.77103    0.58409    0.21446    1.000
    N5206    N        0.75589    0.55680    0.13627    1.000
    N5207    N        0.81924    0.56829    0.16298    1.000
    Si5208   Si       0.80195    0.55753    0.20218    1.000
    N5209    N        0.93752    0.57412    0.16499    1.000
    N5210    N        0.95692    0.54647    0.22217    1.000
    Si5211   Si       0.92262    0.54742    0.19532    1.000
    N5212    N        0.88206    0.56198    0.20184    1.000
    Si5213   Si       0.97651    0.58842    0.17632    1.000
    Si5214   Si       0.93301    0.56060    0.12359    1.000
    Si5215   Si       0.86573    0.54053    0.23572    1.000
    Si5216   Si       0.80901    0.56667    0.27624    1.000
    N5217    N        0.78228    0.57744    0.34146    1.000
    N5218    N        0.83543    0.55373    0.30796    1.000
    Si5219   Si       0.74987    0.54867    0.32246    1.000
    Si5220   Si       0.81549    0.54614    0.34528    1.000
    N5221    N        0.77216    0.54672    0.27982    1.000
    N5222    N        0.73883    0.53986    0.36819    1.000
    N5223    N        0.88835    0.56069    0.26924    1.000
    N5224    N        0.90471    0.56077    0.33260    1.000
    Si5225   Si       0.94350    0.57233    0.31623    1.000
    Si5226   Si       0.87765    0.54216    0.30613    1.000
    N5227    N        0.96929    0.54164    0.30220    1.000
    N5228    N        0.96240    0.59294    0.35183    1.000
    N5229    N        0.84836    0.54713    0.37220    1.000
    N5230    N        0.84384    0.55407    0.44822    1.000
    Si5231   Si       0.81423    0.55463    0.48019    1.000
    N5232    N        0.79402    0.55533    0.40584    1.000
    Si5233   Si       0.76325    0.57564    0.38363    1.000
    Si5234   Si       0.83544    0.56809    0.40831    1.000
    N5235    N        0.79802    0.59251    0.49326    1.000
    Si5236   Si       0.89049    0.54973    0.37265    1.000
    Si5237   Si       0.87415    0.55402    0.47938    1.000
    N5238    N        0.89759    0.57939    0.40129    1.000
    N5239    N        0.95369    0.54162    0.40119    1.000
    Si5240   Si       0.92808    0.56140    0.43067    1.000
    Si5241   Si       0.98276    0.57107    0.38336    1.000
    N5242    N        0.79703    0.56024    0.55476    1.000
    Si5243   Si       0.78180    0.54685    0.59707    1.000
    N5244    N        0.84405    0.54336    0.50996    1.000
    N5245    N        0.80838    0.57959    0.61736    1.000
    Si5246   Si       0.84491    0.59610    0.59833    1.000
    Si5247   Si       0.83748    0.54087    0.55114    1.000
    N5248    N        0.86600    0.56637    0.57361    1.000
    Si5249   Si       0.90424    0.54797    0.57999    1.000
    N5250    N        0.93228    0.57022    0.60531    1.000
    Si5251   Si       0.96471    0.56767    0.54442    1.000
    N5252    N        0.93065    0.53956    0.54506    1.000
    N5253    N        0.98810    0.57070    0.50743    1.000
    Si5254   Si       0.78971    0.57519    0.72758    1.000
    N5255    N        0.79128    0.56498    0.68517    1.000
    Si5256   Si       0.90845    0.57327    0.74644    1.000
    Si5257   Si       0.94597    0.55959    0.64553    1.000
    Si5258   Si       0.88393    0.55607    0.66842    1.000
    N5259    N        0.98705    0.54963    0.65444    1.000
    N5260    N        0.89417    0.57771    0.70555    1.000
    N5261    N        0.87322    0.58656    0.63619    1.000
    Si5262   Si       0.84724    0.56375    0.77600    1.000
    N5263    N        0.84546    0.55130    0.81734    1.000
    N5264    N        0.74499    0.56672    0.82402    1.000
    N5265    N        0.81929    0.59206    0.75506    1.000
    Si5266   Si       0.86528    0.57759    0.84409    1.000
    Si5267   Si       0.94540    0.56648    0.83243    1.000
    N5268    N        0.90892    0.57852    0.85193    1.000
    N5269    N        0.88271    0.59032    0.77777    1.000
    Si5270   Si       0.98417    0.57610    0.77361    1.000
    N5271    N        0.97324    0.59356    0.81388    1.000
    N5272    N        0.94849    0.59002    0.75075    1.000
    N5273    N        0.97271    0.55091    0.86649    1.000
    Si5274   Si       0.73876    0.55384    0.96885    1.000
    N5275    N        0.85158    0.57620    0.88804    1.000
    N5276    N        0.77848    0.56705    0.95678    1.000
    N5277    N        0.76919    0.55708    0.88737    1.000
    Si5278   Si       0.78044    0.53649    0.92480    1.000
    N5279    N        0.90062    0.56686    0.97699    1.000
    N5280    N        0.96909    0.59258    0.98041    1.000
    Si5281   Si       0.93211    0.59305    0.96102    1.000
    N5282    N        0.93790    0.57768    0.91945    1.000
    Si5283   Si       0.81342    0.62027    0.02532    1.000
    N5284    N        0.80286    0.60812    0.10995    1.000
    Si5285   Si       0.81292    0.64820    0.09518    1.000
    N5286    N        0.80985    0.65307    0.05284    1.000
    N5287    N        0.85029    0.60079    0.01618    1.000
    Si5288   Si       0.98462    0.61534    0.01381    1.000
    N5289    N        0.96132    0.65250    0.01891    1.000
    Si5290   Si       0.82760    0.60669    0.14623    1.000
    N5291    N        0.80010    0.63179    0.17120    1.000
    N5292    N        0.83956    0.62793    0.22373    1.000
    Si5293   Si       0.76785    0.64444    0.14461    1.000
    Si5294   Si       0.77031    0.61786    0.24221    1.000
    Si5295   Si       0.80914    0.65495    0.20619    1.000
    N5296    N        0.92684    0.64983    0.12654    1.000
    N5297    N        0.97394    0.62035    0.20650    1.000
    N5298    N        0.90360    0.62205    0.22939    1.000
    Si5299   Si       0.96511    0.65584    0.15590    1.000
    Si5300   Si       0.87351    0.60641    0.20220    1.000
    Si5301   Si       0.88530    0.65245    0.13676    1.000
    N5302    N        0.98351    0.61639    0.14292    1.000
    N5303    N        0.86777    0.62066    0.16096    1.000
    Si5304   Si       0.94066    0.64443    0.22034    1.000
    Si5305   Si       0.79292    0.61518    0.32136    1.000
    Si5306   Si       0.83531    0.63694    0.26653    1.000
    N5307    N        0.75526    0.63595    0.31757    1.000
    N5308    N        0.82313    0.64147    0.34170    1.000
    N5309    N        0.80109    0.61007    0.27715    1.000
    Si5310   Si       0.86387    0.64936    0.32569    1.000
    N5311    N        0.86940    0.62663    0.28861    1.000
    Si5312   Si       0.96692    0.63775    0.28835    1.000
    N5313    N        0.89308    0.63051    0.35715    1.000
    Si5314   Si       0.93719    0.63165    0.35608    1.000
    N5315    N        0.93811    0.60366    0.28770    1.000
    Si5316   Si       0.90019    0.60335    0.26750    1.000
    Si5317   Si       0.81187    0.63974    0.38658    1.000
    N5318    N        0.77228    0.62219    0.38904    1.000
    N5319    N        0.84015    0.61027    0.40109    1.000
    N5320    N        0.75106    0.63616    0.45703    1.000
    Si5321   Si       0.75905    0.61133    0.48939    1.000
    Si5322   Si       0.90652    0.62266    0.46473    1.000
    N5323    N        0.94925    0.64121    0.39622    1.000
    N5324    N        0.88741    0.64405    0.43231    1.000
    Si5325   Si       0.88185    0.61942    0.39718    1.000
    Si5326   Si       0.97071    0.62157    0.42935    1.000
    N5327    N        0.94015    0.59938    0.45066    1.000
    N5328    N        0.88040    0.59494    0.48415    1.000
    N5329    N        0.82937    0.61979    0.55973    1.000
    N5330    N        0.76350    0.62462    0.53216    1.000
    N5331    N        0.85265    0.64064    0.61384    1.000
    Si5332   Si       0.84201    0.65958    0.57288    1.000
    Si5333   Si       0.79922    0.60063    0.53703    1.000
    Si5334   Si       0.94790    0.60989    0.59415    1.000
    N5335    N        0.92050    0.64257    0.60367    1.000
    N5336    N        0.94856    0.60640    0.55078    1.000
    Si5337   Si       0.95086    0.64148    0.52499    1.000
    N5338    N        0.91713    0.65110    0.49691    1.000
    N5339    N        0.98747    0.61340    0.61416    1.000
    N5340    N        0.75074    0.60825    0.64320    1.000
    Si5341   Si       0.78118    0.64518    0.70353    1.000
    N5342    N        0.80630    0.63082    0.67229    1.000
    N5343    N        0.76579    0.61148    0.72751    1.000
    Si5344   Si       0.84096    0.65186    0.65604    1.000
    Si5345   Si       0.79067    0.59495    0.65392    1.000
    Si5346   Si       0.98080    0.62466    0.65472    1.000
    N5347    N        0.92288    0.64622    0.71928    1.000
    N5348    N        0.88348    0.64377    0.66916    1.000
    Si5349   Si       0.89018    0.62729    0.62959    1.000
    Si5350   Si       0.91233    0.61481    0.68998    1.000
    N5351    N        0.94164    0.60235    0.66184    1.000
    N5352    N        0.78862    0.61657    0.85320    1.000
    Si5353   Si       0.81426    0.63428    0.76322    1.000
    Si5354   Si       0.82549    0.64091    0.85172    1.000
    N5355    N        0.78467    0.63894    0.79396    1.000
    Si5356   Si       0.76492    0.60760    0.81774    1.000
    N5357    N        0.85745    0.61874    0.83388    1.000
    N5358    N        0.85221    0.65443    0.77686    1.000
    Si5359   Si       0.88225    0.62816    0.79711    1.000
    N5360    N        0.92065    0.64593    0.78897    1.000
    Si5361   Si       0.94556    0.63347    0.75384    1.000
    N5362    N        0.98472    0.65394    0.75428    1.000
    N5363    N        0.95905    0.63093    0.86997    1.000
    N5364    N        0.78107    0.62520    0.92095    1.000
    N5365    N        0.79274    0.63113    0.98840    1.000
    Si5366   Si       0.79968    0.60493    0.95427    1.000
    N5367    N        0.84588    0.60562    0.94879    1.000
    Si5368   Si       0.85759    0.61369    0.90804    1.000
    N5369    N        0.83706    0.65124    0.89170    1.000
    Si5370   Si       0.76749    0.60070    0.88827    1.000
    Si5371   Si       0.74139    0.64554    0.92077    1.000
    Si5372   Si       0.87558    0.60154    0.98099    1.000
    Si5373   Si       0.92799    0.60274    0.88502    1.000
    N5374    N        0.91023    0.62771    0.97465    1.000
    N5375    N        0.89967    0.62701    0.90584    1.000
    Si5376   Si       0.80824    0.69424    0.03949    1.000
    N5377    N        0.78421    0.67238    0.11737    1.000
    N5378    N        0.84710    0.70947    0.05143    1.000
    N5379    N        0.79781    0.70032    0.99825    1.000
    Si5380   Si       0.86372    0.69982    0.08969    1.000
    N5381    N        0.85542    0.66019    0.10477    1.000
    N5382    N        0.90885    0.69518    0.00324    1.000
    Si5383   Si       0.97616    0.68695    0.04182    1.000
    Si5384   Si       0.93731    0.68684    0.10370    1.000
    N5385    N        0.97511    0.67880    0.08476    1.000
    N5386    N        0.90555    0.69750    0.07864    1.000
    Si5387   Si       0.74888    0.69669    0.12316    1.000
    N5388    N        0.82459    0.69358    0.19701    1.000
    N5389    N        0.77169    0.65984    0.23120    1.000
    Si5390   Si       0.84126    0.71119    0.15815    1.000
    N5391    N        0.74479    0.67801    0.16448    1.000
    Si5392   Si       0.91801    0.70832    0.17268    1.000
    N5393    N        0.94060    0.67441    0.18930    1.000
    N5394    N        0.88037    0.69144    0.15842    1.000
    N5395    N        0.82030    0.67639    0.27371    1.000
    N5396    N        0.77496    0.69939    0.35547    1.000
    Si5397   Si       0.78151    0.69343    0.25950    1.000
    N5398    N        0.75870    0.70443    0.29592    1.000
    Si5399   Si       0.74949    0.67674    0.32905    1.000
    Si5400   Si       0.84138    0.71321    0.28872    1.000
    N5401    N        0.87166    0.69259    0.31641    1.000
    Si5402   Si       0.97424    0.69609    0.33872    1.000
    N5403    N        0.95860    0.66432    0.25496    1.000
    Si5404   Si       0.96532    0.70489    0.26783    1.000
    N5405    N        0.95981    0.65725    0.32624    1.000
    N5406    N        0.82043    0.67496    0.40975    1.000
    Si5407   Si       0.78936    0.70549    0.39568    1.000
    N5408    N        0.75460    0.69521    0.41995    1.000
    Si5409   Si       0.85828    0.67761    0.43546    1.000
    N5410    N        0.84974    0.67422    0.47935    1.000
    N5411    N        0.75881    0.70203    0.48898    1.000
    Si5412   Si       0.73995    0.67818    0.45716    1.000
    N5413    N        0.98193    0.70917    0.49385    1.000
    Si5414   Si       0.96766    0.67711    0.40914    1.000
    N5415    N        0.94419    0.70709    0.42924    1.000
    N5416    N        0.81034    0.68738    0.58112    1.000
    N5417    N        0.74851    0.69635    0.55575    1.000
    Si5418   Si       0.79470    0.69369    0.62263    1.000
    Si5419   Si       0.78783    0.71458    0.55710    1.000
    Si5420   Si       0.91799    0.67764    0.57936    1.000
    N5421    N        0.95267    0.67704    0.55349    1.000
    Si5422   Si       0.88381    0.67473    0.50931    1.000
    N5423    N        0.87914    0.67489    0.55421    1.000
    N5424    N        0.93048    0.71000    0.60709    1.000
    N5425    N        0.75293    0.67548    0.62213    1.000
    Si5426   Si       0.82829    0.70246    0.73418    1.000
    N5427    N        0.82634    0.69344    0.65173    1.000
    N5428    N        0.74898    0.66725    0.68565    1.000
    N5429    N        0.80508    0.66419    0.73433    1.000
    N5430    N        0.86251    0.69878    0.70865    1.000
    Si5431   Si       0.94708    0.69987    0.64579    1.000
    Si5432   Si       0.89824    0.67570    0.70040    1.000
    N5433    N        0.92115    0.70775    0.68026    1.000
    N5434    N        0.97237    0.66572    0.65810    1.000
    N5435    N        0.81816    0.68020    0.83142    1.000
    Si5436   Si       0.77971    0.67577    0.81142    1.000
    Si5437   Si       0.84927    0.69030    0.80070    1.000
    N5438    N        0.77335    0.71401    0.79248    1.000
    N5439    N        0.74221    0.67241    0.83488    1.000
    Si5440   Si       0.73700    0.70114    0.86732    1.000
    Si5441   Si       0.92638    0.68906    0.79467    1.000
    N5442    N        0.95851    0.69188    0.82417    1.000
    N5443    N        0.88835    0.70177    0.81651    1.000
    N5444    N        0.93617    0.70588    0.75715    1.000
    Si5445   Si       0.96042    0.67500    0.86673    1.000
    Si5446   Si       0.89476    0.71221    0.85749    1.000
    Si5447   Si       0.97798    0.69604    0.74701    1.000
    Si5448   Si       0.84262    0.68988    0.91062    1.000
    Si5449   Si       0.76870    0.66825    0.98815    1.000
    N5450    N        0.81058    0.71375    0.92884    1.000
    Si5451   Si       0.98518    0.69410    0.94036    1.000
    N5452    N        0.98661    0.69301    0.89626    1.000
    Si5453   Si       0.91223    0.66531    0.92095    1.000
    N5454    N        0.91942    0.68565    0.88041    1.000
    N5455    N        0.87666    0.68630    0.93821    1.000
    Si5456   Si       0.93376    0.66123    0.98897    1.000
    Si5457   Si       0.88677    0.71120    0.96997    1.000
    N5458    N        0.94765    0.67124    0.94751    1.000
    Si5459   Si       0.85292    0.74521    0.02757    1.000
    Si5460   Si       0.80007    0.73704    0.09919    1.000
    Si5461   Si       0.74926    0.72369    0.03197    1.000
    N5462    N        0.77978    0.72184    0.06100    1.000
    N5463    N        0.83761    0.72189    0.11505    1.000
    N5464    N        0.74523    0.75486    0.00035    1.000
    Si5465   Si       0.97241    0.76548    0.06392    1.000
    N5466    N        0.95491    0.72659    0.04667    1.000
    N5467    N        0.89324    0.75780    0.03956    1.000
    Si5468   Si       0.91284    0.71967    0.04109    1.000
    Si5469   Si       0.74659    0.76931    0.15180    1.000
    N5470    N        0.76489    0.73639    0.12751    1.000
    N5471    N        0.79099    0.73044    0.23850    1.000
    Si5472   Si       0.82992    0.73202    0.21889    1.000
    Si5473   Si       0.75120    0.74949    0.22887    1.000
    N5474    N        0.83334    0.75136    0.17593    1.000
    N5475    N        0.76258    0.77097    0.19349    1.000
    N5476    N        0.91334    0.74267    0.20249    1.000
    Si5477   Si       0.90426    0.74304    0.24530    1.000
    Si5478   Si       0.97074    0.74981    0.14210    1.000
    N5479    N        0.94023    0.71655    0.13666    1.000
    N5480    N        0.81693    0.74279    0.30804    1.000
    Si5481   Si       0.77678    0.73272    0.32482    1.000
    N5482    N        0.85934    0.73340    0.25134    1.000
    N5483    N        0.76429    0.76828    0.34543    1.000
    N5484    N        0.89452    0.75978    0.32588    1.000
    Si5485   Si       0.92511    0.75986    0.36074    1.000
    N5486    N        0.93938    0.72220    0.34486    1.000
    Si5487   Si       0.90751    0.71892    0.31497    1.000
    N5488    N        0.92418    0.71678    0.27573    1.000
    Si5489   Si       0.83905    0.75126    0.42307    1.000
    N5490    N        0.82006    0.73932    0.46020    1.000
    N5491    N        0.80839    0.74396    0.39343    1.000
    Si5492   Si       0.78707    0.73437    0.48798    1.000
    Si5493   Si       0.84556    0.71743    0.49098    1.000
    N5494    N        0.87103    0.71916    0.42685    1.000
    N5495    N        0.93385    0.75785    0.46856    1.000
    N5496    N        0.91422    0.76544    0.40132    1.000
    Si5497   Si       0.96830    0.73040    0.45966    1.000
    Si5498   Si       0.91224    0.73693    0.43311    1.000
    Si5499   Si       0.79595    0.76525    0.60509    1.000
    N5500    N        0.78004    0.75912    0.56513    1.000
    N5501    N        0.81458    0.72006    0.52056    1.000
    N5502    N        0.77396    0.73258    0.62199    1.000
    N5503    N        0.76551    0.76824    0.50096    1.000
    N5504    N        0.93969    0.74025    0.54185    1.000
    Si5505   Si       0.91580    0.75469    0.51013    1.000
    Si5506   Si       0.93220    0.74778    0.58409    1.000
    N5507    N        0.89431    0.76609    0.58769    1.000
    N5508    N        0.88776    0.71801    0.50063    1.000
    N5509    N        0.96417    0.77084    0.59923    1.000
    Si5510   Si       0.97168    0.71237    0.53634    1.000
    Si5511   Si       0.77736    0.75388    0.72707    1.000
    N5512    N        0.81130    0.73487    0.70875    1.000
    Si5513   Si       0.84018    0.72357    0.67944    1.000
    N5514    N        0.74528    0.72464    0.73002    1.000
    Si5515   Si       0.75249    0.76974    0.65745    1.000
    Si5516   Si       0.87116    0.77628    0.62331    1.000
    N5517    N        0.98478    0.72651    0.64902    1.000
    Si5518   Si       0.97169    0.76772    0.64146    1.000
    N5519    N        0.89645    0.76207    0.72585    1.000
    Si5520   Si       0.90469    0.74936    0.68404    1.000
    N5521    N        0.86885    0.75230    0.66042    1.000
    Si5522   Si       0.80384    0.74410    0.79059    1.000
    N5523    N        0.81671    0.74998    0.83115    1.000
    N5524    N        0.83562    0.71975    0.77257    1.000
    Si5525   Si       0.81604    0.71483    0.85485    1.000
    N5526    N        0.78472    0.77284    0.76615    1.000
    Si5527   Si       0.96993    0.73527    0.81393    1.000
    N5528    N        0.93867    0.75893    0.79558    1.000
    N5529    N        0.97772    0.75082    0.85416    1.000
    Si5530   Si       0.93092    0.74993    0.75385    1.000
    N5531    N        0.90785    0.75390    0.86889    1.000
    N5532    N        0.85465    0.71696    0.87638    1.000
    Si5533   Si       0.78542    0.74232    0.90793    1.000
    Si5534   Si       0.81361    0.73042    0.96915    1.000
    N5535    N        0.85364    0.73593    0.98470    1.000
    N5536    N        0.74729    0.75672    0.92372    1.000
    N5537    N        0.85786    0.76973    0.92258    1.000
    Si5538   Si       0.75572    0.77348    0.96391    1.000
    N5539    N        0.79937    0.77151    0.95805    1.000
    N5540    N        0.77769    0.71576    0.87475    1.000
    Si5541   Si       0.87531    0.76997    0.96156    1.000
    Si5542   Si       0.94927    0.76068    0.95025    1.000
    N5543    N        0.98149    0.73219    0.96100    1.000
    Si5544   Si       0.86766    0.76132    0.88260    1.000
    N5545    N        0.90979    0.74593    0.95668    1.000
    Si5546   Si       0.82586    0.80626    0.07116    1.000
    Si5547   Si       0.78120    0.81636    0.11694    1.000
    Si5548   Si       0.82287    0.80948    0.00638    1.000
    N5549    N        0.80989    0.78129    0.10655    1.000
    N5550    N        0.82440    0.77608    0.03777    1.000
    N5551    N        0.86832    0.80608    0.08597    1.000
    Si5552   Si       0.90164    0.79677    0.05851    1.000
    N5553    N        0.94105    0.79208    0.07650    1.000
    N5554    N        0.90667    0.82836    0.02939    1.000
    Si5555   Si       0.94645    0.81234    0.11488    1.000
    N5556    N        0.98487    0.83480    0.11029    1.000
    Si5557   Si       0.87298    0.83415    0.11789    1.000
    Si5558   Si       0.93806    0.81941    0.00130    1.000
    Si5559   Si       0.82940    0.78410    0.14534    1.000
    N5560    N        0.79619    0.81309    0.15916    1.000
    Si5561   Si       0.79139    0.80431    0.20136    1.000
    N5562    N        0.82968    0.80990    0.21842    1.000
    N5563    N        0.86056    0.81113    0.15334    1.000
    Si5564   Si       0.86022    0.82763    0.19232    1.000
    N5565    N        0.74247    0.80115    0.12489    1.000
    N5566    N        0.94393    0.78336    0.14632    1.000
    N5567    N        0.90325    0.81783    0.19702    1.000
    Si5568   Si       0.92359    0.78220    0.18577    1.000
    N5569    N        0.96255    0.79430    0.20976    1.000
    N5570    N        0.85054    0.80196    0.28777    1.000
    N5571    N        0.82452    0.80215    0.35277    1.000
    N5572    N        0.78799    0.80902    0.28493    1.000
    Si5573   Si       0.81597    0.78705    0.31076    1.000
    Si5574   Si       0.75141    0.81485    0.26303    1.000
    Si5575   Si       0.82554    0.82397    0.26065    1.000
    Si5576   Si       0.88921    0.79118    0.29730    1.000
    N5577    N        0.94748    0.79590    0.35386    1.000
    Si5578   Si       0.93925    0.81505    0.27740    1.000
    N5579    N        0.91410    0.78076    0.26238    1.000
    N5580    N        0.97674    0.81082    0.29995    1.000
    Si5581   Si       0.98901    0.79057    0.33967    1.000
    Si5582   Si       0.92596    0.83404    0.34679    1.000
    N5583    N        0.90896    0.83070    0.30580    1.000
    Si5584   Si       0.79452    0.78113    0.37624    1.000
    N5585    N        0.85404    0.79173    0.42728    1.000
    N5586    N        0.78523    0.80584    0.41139    1.000
    Si5587   Si       0.82165    0.81915    0.43187    1.000
    Si5588   Si       0.74339    0.81532    0.42201    1.000
    N5589    N        0.81625    0.83265    0.47179    1.000
    N5590    N        0.91655    0.82526    0.44031    1.000
    N5591    N        0.89222    0.82529    0.37287    1.000
    N5592    N        0.98514    0.80659    0.44692    1.000
    Si5593   Si       0.89440    0.80366    0.41064    1.000
    Si5594   Si       0.94537    0.80280    0.46472    1.000
    N5595    N        0.82424    0.80022    0.53227    1.000
    Si5596   Si       0.78012    0.79074    0.53375    1.000
    Si5597   Si       0.85889    0.78644    0.55960    1.000
    N5598    N        0.76068    0.82837    0.54293    1.000
    N5599    N        0.83542    0.77570    0.59622    1.000
    N5600    N        0.87281    0.82788    0.56774    1.000
    Si5601   Si       0.90503    0.82320    0.53498    1.000
    N5602    N        0.94193    0.80975    0.50622    1.000
    Si5603   Si       0.97167    0.82309    0.53693    1.000
    N5604    N        0.88659    0.78194    0.52401    1.000
    N5605    N        0.85025    0.81518    0.72263    1.000
    N5606    N        0.78191    0.79250    0.63279    1.000
    N5607    N        0.76808    0.78223    0.69705    1.000
    Si5608   Si       0.76899    0.82490    0.70740    1.000
    Si5609   Si       0.79014    0.83377    0.63600    1.000
    N5610    N        0.95833    0.77245    0.72970    1.000
    Si5611   Si       0.95460    0.80292    0.69613    1.000
    N5612    N        0.91877    0.82943    0.70270    1.000
    N5613    N        0.87625    0.81529    0.63960    1.000
    Si5614   Si       0.89128    0.80494    0.73029    1.000
    N5615    N        0.93646    0.77372    0.66804    1.000
    Si5616   Si       0.81476    0.78962    0.84841    1.000
    Si5617   Si       0.78162    0.81412    0.77942    1.000
    N5618    N        0.80583    0.81641    0.81641    1.000
    N5619    N        0.85826    0.79816    0.86053    1.000
    N5620    N        0.74224    0.82589    0.79535    1.000
    N5621    N        0.90949    0.81452    0.76955    1.000
    N5622    N        0.94288    0.80947    0.84322    1.000
    Si5623   Si       0.94406    0.80322    0.79971    1.000
    N5624    N        0.98625    0.80811    0.78534    1.000
    N5625    N        0.85703    0.80619    0.97946    1.000
    Si5626   Si       0.82087    0.79831    0.92537    1.000
    N5627    N        0.80323    0.77849    0.88840    1.000
    Si5628   Si       0.94565    0.77545    0.87141    1.000
    N5629    N        0.91794    0.83190    0.96032    1.000
    N5630    N        0.95662    0.78359    0.98751    1.000
    N5631    N        0.96159    0.78027    0.91388    1.000
    Si5632   Si       0.79773    0.86101    0.04024    1.000
    N5633    N        0.75807    0.88211    0.03988    1.000
    N5634    N        0.83814    0.83618    0.03918    1.000
    N5635    N        0.79164    0.83629    0.08008    1.000
    N5636    N        0.84994    0.87073    0.11916    1.000
    N5637    N        0.78885    0.83559    0.00011    1.000
    Si5638   Si       0.87330    0.85702    0.02733    1.000
    N5639    N        0.88641    0.88057    0.06284    1.000
    Si5640   Si       0.98018    0.89157    0.01323    1.000
    Si5641   Si       0.76525    0.87395    0.20922    1.000
    N5642    N        0.76465    0.87777    0.16412    1.000
    N5643    N        0.85299    0.87061    0.19376    1.000
    N5644    N        0.76798    0.83276    0.22574    1.000
    Si5645   Si       0.94356    0.83448    0.20711    1.000
    N5646    N        0.91426    0.84114    0.12457    1.000
    N5647    N        0.95489    0.86418    0.17665    1.000
    Si5648   Si       0.92707    0.87720    0.14442    1.000
    N5649    N        0.84437    0.86422    0.26214    1.000
    N5650    N        0.85391    0.86657    0.33201    1.000
    Si5651   Si       0.85068    0.83639    0.36452    1.000
    Si5652   Si       0.87433    0.86391    0.29517    1.000
    N5653    N        0.94415    0.87442    0.34394    1.000
    N5654    N        0.94518    0.84660    0.24860    1.000
    Si5655   Si       0.74994    0.86976    0.37467    1.000
    N5656    N        0.83615    0.84958    0.40284    1.000
    Si5657   Si       0.79680    0.87247    0.47970    1.000
    Si5658   Si       0.82256    0.89113    0.40615    1.000
    Si5659   Si       0.96491    0.88873    0.37872    1.000
    N5660    N        0.96899    0.87041    0.45454    1.000
    Si5661   Si       0.89391    0.88904    0.49480    1.000
    Si5662   Si       0.92714    0.87019    0.43719    1.000
    Si5663   Si       0.97427    0.88501    0.49516    1.000
    Si5664   Si       0.77508    0.86824    0.53900    1.000
    N5665    N        0.81729    0.87394    0.52080    1.000
    N5666    N        0.82218    0.85459    0.61493    1.000
    Si5667   Si       0.83919    0.83474    0.51012    1.000
    N5668    N        0.75855    0.87924    0.49990    1.000
    Si5669   Si       0.86443    0.84360    0.60661    1.000
    Si5670   Si       0.93499    0.85593    0.60111    1.000
    N5671    N        0.89632    0.87000    0.61331    1.000
    N5672    N        0.97366    0.87890    0.60176    1.000
    N5673    N        0.87980    0.84887    0.50635    1.000
    N5674    N        0.93813    0.83696    0.56191    1.000
    N5675    N        0.82567    0.88120    0.72896    1.000
    Si5676   Si       0.83431    0.84743    0.70018    1.000
    N5677    N        0.79666    0.84684    0.67958    1.000
    N5678    N        0.75494    0.85861    0.63593    1.000
    Si5679   Si       0.77420    0.88445    0.66767    1.000
    Si5680   Si       0.78383    0.88522    0.74127    1.000
    N5681    N        0.77918    0.83990    0.74482    1.000
    N5682    N        0.94179    0.83906    0.64175    1.000
    Si5683   Si       0.90114    0.84523    0.66124    1.000
    N5684    N        0.96075    0.88269    0.74173    1.000
    N5685    N        0.86461    0.86745    0.67617    1.000
    Si5686   Si       0.92363    0.87142    0.72127    1.000
    Si5687   Si       0.82295    0.85767    0.82129    1.000
    N5688    N        0.79462    0.87937    0.79598    1.000
    Si5689   Si       0.74994    0.86932    0.80046    1.000
    N5690    N        0.82808    0.85940    0.86557    1.000
    N5691    N        0.86293    0.85415    0.80789    1.000
    Si5692   Si       0.96030    0.88861    0.78561    1.000
    Si5693   Si       0.89818    0.85236    0.78567    1.000
    N5694    N        0.93464    0.86260    0.80752    1.000
    Si5695   Si       0.93791    0.85065    0.84937    1.000
    N5696    N        0.89215    0.87855    0.74977    1.000
    N5697    N        0.96107    0.88180    0.86814    1.000
    N5698    N        0.75182    0.88075    0.96272    1.000
    Si5699   Si       0.81525    0.86679    0.90820    1.000
    Si5700   Si       0.76911    0.84106    0.96252    1.000
    N5701    N        0.85532    0.83451    0.91930    1.000
    N5702    N        0.79307    0.83468    0.92761    1.000
    N5703    N        0.98521    0.84494    0.93057    1.000
    N5704    N        0.90217    0.85865    0.87310    1.000
    Si5705   Si       0.86513    0.83854    0.87488    1.000
    N5706    N        0.96521    0.85306    0.99775    1.000
    Si5707   Si       0.95233    0.85824    0.95523    1.000
    Si5708   Si       0.87510    0.84092    0.95897    1.000
    Si5709   Si       0.92464    0.89021    0.89474    1.000
    N5710    N        0.86654    0.87400    0.98613    1.000
    Si5711   Si       0.82018    0.93345    0.02632    1.000
    Si5712   Si       0.76145    0.91902    0.06915    1.000
    N5713    N        0.77998    0.91263    0.10830    1.000
    N5714    N        0.85727    0.93857    0.09562    1.000
    N5715    N        0.82487    0.89761    0.04891    1.000
    N5716    N        0.78144    0.94741    0.04142    1.000
    Si5717   Si       0.84946    0.89693    0.08490    1.000
    N5718    N        0.91780    0.93901    0.05821    1.000
    Si5719   Si       0.92442    0.89904    0.07180    1.000
    N5720    N        0.96623    0.90223    0.05355    1.000
    Si5721   Si       0.98350    0.90191    0.09608    1.000
    Si5722   Si       0.95331    0.94271    0.03474    1.000
    N5723    N        0.94285    0.89936    0.11143    1.000
    Si5724   Si       0.83970    0.89224    0.22844    1.000
    Si5725   Si       0.78422    0.91522    0.15087    1.000
    N5726    N        0.82884    0.92523    0.15542    1.000
    N5727    N        0.79671    0.90280    0.22174    1.000
    Si5728   Si       0.78290    0.94339    0.21518    1.000
    N5729    N        0.85843    0.93091    0.24090    1.000
    Si5730   Si       0.85664    0.89384    0.15709    1.000
    N5731    N        0.96365    0.92978    0.17407    1.000
    N5732    N        0.92739    0.91167    0.22780    1.000
    N5733    N        0.89686    0.90685    0.15841    1.000
    Si5734   Si       0.92269    0.93000    0.18816    1.000
    Si5735   Si       0.98595    0.89437    0.18178    1.000
    N5736    N        0.75284    0.94536    0.24644    1.000
    N5737    N        0.90001    0.90105    0.29184    1.000
    N5738    N        0.97191    0.90557    0.28504    1.000
    Si5739   Si       0.89960    0.92743    0.25771    1.000
    Si5740   Si       0.93877    0.90580    0.31391    1.000
    N5741    N        0.94066    0.94759    0.32829    1.000
    Si5742   Si       0.96045    0.88927    0.24695    1.000
    N5743    N        0.73967    0.94245    0.41081    1.000
    Si5744   Si       0.77439    0.93708    0.38389    1.000
    Si5745   Si       0.81045    0.94290    0.45392    1.000
    N5746    N        0.81336    0.89857    0.44928    1.000
    N5747    N        0.85658    0.91750    0.39293    1.000
    N5748    N        0.78720    0.89409    0.38346    1.000
    N5749    N        0.99085    0.92452    0.37085    1.000
    N5750    N        0.89243    0.89611    0.45290    1.000
    N5751    N        0.93035    0.89813    0.40388    1.000
    Si5752   Si       0.89337    0.91934    0.41510    1.000
    Si5753   Si       0.83621    0.91219    0.54231    1.000
    N5754    N        0.84590    0.90779    0.58506    1.000
    Si5755   Si       0.74797    0.92425    0.58206    1.000
    Si5756   Si       0.81105    0.89541    0.60623    1.000
    N5757    N        0.77915    0.89617    0.57622    1.000
    N5758    N        0.74095    0.94025    0.54334    1.000
    N5759    N        0.81461    0.94830    0.53139    1.000
    N5760    N        0.98733    0.93930    0.57193    1.000
    N5761    N        0.91839    0.92127    0.58229    1.000
    Si5762   Si       0.88413    0.91220    0.60673    1.000
    N5763    N        0.87491    0.91504    0.52276    1.000
    Si5764   Si       0.91496    0.92514    0.53974    1.000
    Si5765   Si       0.95990    0.92137    0.59851    1.000
    N5766    N        0.93457    0.89546    0.50978    1.000
    N5767    N        0.79464    0.91360    0.64226    1.000
    Si5768   Si       0.75599    0.94032    0.71772    1.000
    N5769    N        0.75990    0.89927    0.70311    1.000
    Si5770   Si       0.85941    0.90473    0.74687    1.000
    Si5771   Si       0.88026    0.90859    0.67899    1.000
    N5772    N        0.97172    0.94133    0.70765    1.000
    N5773    N        0.92230    0.89418    0.68295    1.000
    N5774    N        0.87216    0.93264    0.71381    1.000
    N5775    N        0.96351    0.93843    0.63829    1.000
    N5776    N        0.87685    0.93088    0.64406    1.000
    Si5777   Si       0.96235    0.91446    0.67461    1.000
    N5778    N        0.84506    0.92763    0.77971    1.000
    Si5779   Si       0.80285    0.92291    0.79099    1.000
    N5780    N        0.77940    0.92821    0.75450    1.000
    N5781    N        0.78562    0.94084    0.82576    1.000
    Si5782   Si       0.74388    0.93479    0.83636    1.000
    N5783    N        0.94913    0.93137    0.78878    1.000
    N5784    N        0.89266    0.94681    0.82733    1.000
    N5785    N        0.83380    0.94517    0.87467    1.000
    Si5786   Si       0.74334    0.89991    0.92459    1.000
    N5787    N        0.78007    0.89888    0.90261    1.000
    Si5788   Si       0.81161    0.92966    0.90813    1.000
    N5789    N        0.83753    0.89964    0.92722    1.000
    N5790    N        0.81952    0.93332    0.98209    1.000
    Si5791   Si       0.85183    0.91004    0.96517    1.000
    Si5792   Si       0.93085    0.92836    0.96023    1.000
    N5793    N        0.95623    0.92526    0.99574    1.000
    N5794    N        0.90391    0.92791    0.89089    1.000
    N5795    N        0.88801    0.93722    0.96833    1.000
    N5796    N        0.93741    0.89268    0.93609    1.000
    Si5797   Si       0.76340    0.98438    0.02809    1.000
    N5798    N        0.85565    0.95853    0.03106    1.000
    N5799    N        0.89455    0.99987    0.07355    1.000
    N5800    N        0.97713    0.97579    0.04507    1.000
    Si5801   Si       0.88104    0.95904    0.06454    1.000
    N5802    N        0.90746    0.99719    0.00019    1.000
    N5803    N        0.80052    0.98097    0.12136    1.000
    Si5804   Si       0.83876    0.95955    0.12953    1.000
    N5805    N        0.80598    0.97800    0.22957    1.000
    Si5806   Si       0.76776    0.98309    0.15116    1.000
    N5807    N        0.76998    0.94699    0.17565    1.000
    N5808    N        0.87070    0.98811    0.14006    1.000
    N5809    N        0.86694    0.00636    0.23655    1.000
    Si5810   Si       0.90890    0.99221    0.23356    1.000
    N5811    N        0.91501    0.97140    0.19581    1.000
    Si5812   Si       0.97767    0.96166    0.14932    1.000
    N5813    N        0.94308    0.98508    0.13330    1.000
    Si5814   Si       0.90873    0.99536    0.16035    1.000
    Si5815   Si       0.80071    0.97441    0.32249    1.000
    N5816    N        0.82289    0.99009    0.36035    1.000
    Si5817   Si       0.75603    0.98501    0.26726    1.000
    Si5818   Si       0.85286    0.99911    0.32921    1.000
    N5819    N        0.83785    0.96984    0.29780    1.000
    N5820    N        0.78418    0.00420    0.29492    1.000
    Si5821   Si       0.84377    0.97148    0.25237    1.000
    N5822    N        0.77002    0.94883    0.34238    1.000
    N5823    N        0.89055    0.98531    0.34349    1.000
    Si5824   Si       0.91771    0.98067    0.30964    1.000
    N5825    N        0.91085    0.96785    0.26743    1.000
    Si5826   Si       0.98128    0.95471    0.34098    1.000
    Si5827   Si       0.84165    0.96098    0.39145    1.000
    N5828    N        0.84770    0.95766    0.47027    1.000
    N5829    N        0.80367    0.95578    0.41350    1.000
    N5830    N        0.77440    0.95100    0.47678    1.000
    N5831    N        0.94195    0.00361    0.40145    1.000
    N5832    N        0.87998    0.97352    0.40916    1.000
    N5833    N        0.91870    0.98377    0.46696    1.000
    Si5834   Si       0.87751    0.98277    0.45110    1.000
    Si5835   Si       0.90158    0.00205    0.38467    1.000
    Si5836   Si       0.95409    0.98948    0.44138    1.000
    N5837    N        0.98164    0.95894    0.43099    1.000
    Si5838   Si       0.84316    0.97585    0.50923    1.000
    N5839    N        0.75923    0.99700    0.52559    1.000
    Si5840   Si       0.77253    0.95658    0.51976    1.000
    N5841    N        0.75350    0.95785    0.61159    1.000
    Si5842   Si       0.92137    0.99113    0.51026    1.000
    N5843    N        0.88006    0.99066    0.52673    1.000
    N5844    N        0.93899    0.95765    0.52888    1.000
    N5845    N        0.94684    0.99434    0.60587    1.000
    N5846    N        0.87466    0.99576    0.61586    1.000
    Si5847   Si       0.98247    0.95043    0.52987    1.000
    N5848    N        0.76771    0.96423    0.68409    1.000
    Si5849   Si       0.80072    0.99366    0.68740    1.000
    N5850    N        0.81853    0.98339    0.64436    1.000
    N5851    N        0.82285    0.97900    0.72021    1.000
    Si5852   Si       0.78174    0.95448    0.64380    1.000
    Si5853   Si       0.86407    0.97250    0.65004    1.000
    Si5854   Si       0.86625    0.97580    0.72348    1.000
    N5855    N        0.87428    0.99688    0.68662    1.000
    Si5856   Si       0.97866    0.97691    0.62817    1.000
    N5857    N        0.97988    0.99618    0.66671    1.000
    N5858    N        0.83780    0.98711    0.82118    1.000
    Si5859   Si       0.80870    0.96983    0.84935    1.000
    N5860    N        0.78694    0.00142    0.87102    1.000
    Si5861   Si       0.86726    0.96234    0.79691    1.000
    N5862    N        0.88543    0.98239    0.76367    1.000
    N5863    N        0.95435    0.96422    0.86251    1.000
    N5864    N        0.93413    0.99957    0.81404    1.000
    Si5865   Si       0.92000    0.00545    0.77299    1.000
    Si5866   Si       0.93449    0.95511    0.82235    1.000
    Si5867   Si       0.87628    0.95271    0.86844    1.000
    N5868    N        0.95375    0.98794    0.75011    1.000
    Si5869   Si       0.96952    0.94667    0.75157    1.000
    Si5870   Si       0.76006    0.98296    0.90081    1.000
    N5871    N        0.77385    0.99373    0.98613    1.000
    Si5872   Si       0.80704    0.97343    0.96696    1.000
    N5873    N        0.84374    0.99657    0.97316    1.000
    N5874    N        0.79218    0.96398    0.92727    1.000
    Si5875   Si       0.93598    0.00237    0.96535    1.000
    Si5876   Si       0.87221    0.96946    0.99300    1.000
    N5877    N        0.93848    0.96687    0.94148    1.000
    Si5878   Si       0.92959    0.96304    0.89890    1.000
    N5879    N        0.89399    0.98882    0.88371    1.000
