# CIF file generated by openbabel 3.1.1, see https://openbabel.org
data_I
_chemical_name_common '3.01-74.aims'
_cell_length_a 39.926
_cell_length_b 39.926
_cell_length_c 39.926
_cell_angle_alpha 90
_cell_angle_beta 90
_cell_angle_gamma 90
loop_
    _atom_site_label
    _atom_site_type_symbol
    _atom_site_fract_x
    _atom_site_fract_y
    _atom_site_fract_z
    _atom_site_occupancy
    Si0      Si       0.01810    0.10163    0.08508    1.000
    N1       N        0.03692    0.06869    0.06062    1.000
    N2       N        0.04731    0.11730    0.11090    1.000
    N3       N        0.01237    0.04451    0.11958    1.000
    Si4      Si       0.04765    0.04134    0.09188    1.000
    N5       N        0.00857    0.13542    0.05895    1.000
    Si6      Si       0.03965    0.14870    0.03193    1.000
    N7       N        0.02286    0.22765    0.08449    1.000
    N8       N        0.03770    0.22703    0.01055    1.000
    Si9      Si       0.03991    0.21788    0.12422    1.000
    Si10     Si       0.98799    0.25446    0.08420    1.000
    N11      N        0.01236    0.15578    0.99900    1.000
    Si12     Si       0.03798    0.09282    0.20905    1.000
    N13      N        0.99951    0.10366    0.22206    1.000
    Si14     Si       0.00278    0.06734    0.15451    1.000
    N15      N        0.04150    0.07995    0.16873    1.000
    N16      N        0.04224    0.05729    0.23410    1.000
    N17      N        0.03601    0.25164    0.14911    1.000
    Si18     Si       0.99700    0.14813    0.22798    1.000
    Si19     Si       0.99132    0.19666    0.17693    1.000
    N20      N        0.00687    0.22256    0.20883    1.000
    N21      N        0.03713    0.16314    0.22435    1.000
    N22      N        0.02048    0.18814    0.14958    1.000
    Si23     Si       0.00461    0.06021    0.26246    1.000
    N24      N        0.00764    0.09060    0.29267    1.000
    N25      N        0.01753    0.02051    0.27825    1.000
    Si26     Si       0.01968    0.01529    0.32105    1.000
    N27      N        0.04515    0.10212    0.35203    1.000
    Si28     Si       0.02292    0.06562    0.36833    1.000
    Si29     Si       0.04614    0.10213    0.30958    1.000
    Si30     Si       0.04722    0.01098    0.24722    1.000
    N31      N        0.99314    0.23060    0.27327    1.000
    Si32     Si       0.03130    0.16197    0.33321    1.000
    Si33     Si       0.02045    0.22730    0.36069    1.000
    N34      N        0.02134    0.20381    0.32137    1.000
    Si35     Si       0.03321    0.23157    0.28800    1.000
    N36      N        0.99099    0.14290    0.33568    1.000
    Si37     Si       0.04298    0.04185    0.44284    1.000
    N38      N        0.99938    0.04476    0.44675    1.000
    N39      N        0.99548    0.09169    0.39107    1.000
    N40      N        0.00148    0.16022    0.44312    1.000
    N41      N        0.00154    0.23319    0.45720    1.000
    Si42     Si       0.00866    0.20038    0.42966    1.000
    N43      N        0.99311    0.21089    0.39003    1.000
    Si44     Si       0.04265    0.15169    0.45179    1.000
    N45      N        0.01720    0.08405    0.52861    1.000
    Si46     Si       0.03475    0.12363    0.52823    1.000
    N47      N        0.03489    0.08817    0.59501    1.000
    Si48     Si       0.99951    0.07727    0.56850    1.000
    Si49     Si       0.02989    0.13624    0.60490    1.000
    Si50     Si       0.01329    0.18746    0.54828    1.000
    N51      N        0.00190    0.21085    0.58472    1.000
    N52      N        0.02646    0.14836    0.56336    1.000
    N53      N        0.04175    0.20958    0.52423    1.000
    Si54     Si       0.01934    0.23760    0.49733    1.000
    Si55     Si       0.03081    0.06618    0.63593    1.000
    N56      N        0.01200    0.08498    0.67123    1.000
    Si57     Si       0.99697    0.12733    0.67217    1.000
    N58      N        0.04203    0.07311    0.73845    1.000
    Si59     Si       0.00320    0.05244    0.74232    1.000
    N60      N        0.99462    0.03860    0.63795    1.000
    Si61     Si       0.04485    0.09409    0.70080    1.000
    N62      N        0.99487    0.02850    0.70795    1.000
    N63      N        0.99396    0.13300    0.62775    1.000
    N64      N        0.02383    0.19655    0.72075    1.000
    N65      N        0.00313    0.25118    0.70339    1.000
    Si66     Si       0.01539    0.20561    0.62604    1.000
    N67      N        0.02566    0.24778    0.63590    1.000
    N68      N        0.02846    0.13476    0.70146    1.000
    Si69     Si       0.04612    0.23575    0.72288    1.000
    Si70     Si       0.98689    0.21154    0.69900    1.000
    N71      N        0.00275    0.03275    0.78113    1.000
    Si72     Si       0.02534    0.04375    0.81604    1.000
    N73      N        0.00091    0.05413    0.85026    1.000
    N74      N        0.02316    0.13486    0.84012    1.000
    Si75     Si       0.01617    0.15822    0.80303    1.000
    N76      N        0.01522    0.19998    0.81170    1.000
    Si77     Si       0.03450    0.23508    0.79776    1.000
    N78      N        0.02758    0.25217    0.75773    1.000
    Si79     Si       0.00822    0.04042    0.89138    1.000
    Si80     Si       0.02929    0.07981    0.95589    1.000
    N81      N        0.03548    0.06570    0.91551    1.000
    N82      N        0.98993    0.09412    0.96353    1.000
    N83      N        0.01582    0.15831    0.90830    1.000
    Si84     Si       0.02479    0.24545    0.97250    1.000
    N85      N        0.01021    0.22540    0.88182    1.000
    N86      N        0.00026    0.21278    0.95391    1.000
    Si87     Si       0.99577    0.13978    0.87424    1.000
    Si88     Si       0.01725    0.20024    0.91561    1.000
    Si89     Si       0.03297    0.26025    0.89117    1.000
    N90      N        0.03697    0.35650    0.10597    1.000
    N91      N        0.04084    0.31896    0.05098    1.000
    Si92     Si       0.99680    0.37564    0.10370    1.000
    Si93     Si       0.99618    0.31896    0.04711    1.000
    N94      N        0.98966    0.28642    0.11606    1.000
    N95      N        0.02189    0.47898    0.06243    1.000
    N96      N        0.02891    0.41782    0.03142    1.000
    Si97     Si       0.02927    0.43668    0.07010    1.000
    N98      N        0.99987    0.41960    0.09648    1.000
    Si99     Si       0.99733    0.43053    0.00560    1.000
    Si100    Si       0.98775    0.49277    0.03832    1.000
    N101     N        0.02255    0.31338    0.23148    1.000
    Si102    Si       0.01869    0.29120    0.15009    1.000
    Si103    Si       0.99068    0.38585    0.22243    1.000
    Si104    Si       0.00925    0.44545    0.18570    1.000
    N105     N        0.01380    0.47533    0.21689    1.000
    N106     N        0.02224    0.40648    0.19965    1.000
    N107     N        0.03956    0.45539    0.15589    1.000
    N108     N        0.01124    0.32476    0.30899    1.000
    Si109    Si       0.02418    0.33428    0.26868    1.000
    Si110    Si       0.03298    0.29400    0.33339    1.000
    N111     N        0.00975    0.37437    0.25961    1.000
    N112     N        0.00533    0.26608    0.35133    1.000
    N113     N        0.00774    0.39245    0.32329    1.000
    N114     N        0.01496    0.44547    0.28135    1.000
    Si115    Si       0.02690    0.40509    0.28602    1.000
    Si116    Si       0.03916    0.39525    0.35628    1.000
    N117     N        0.99876    0.45207    0.35508    1.000
    Si118    Si       0.04769    0.47273    0.28915    1.000
    N119     N        0.03272    0.32769    0.45655    1.000
    Si120    Si       0.03360    0.36463    0.42825    1.000
    N121     N        0.01760    0.38310    0.39120    1.000
    Si122    Si       0.99018    0.33234    0.46863    1.000
    N123     N        0.03444    0.50678    0.37926    1.000
    N124     N        0.02753    0.46026    0.42720    1.000
    Si125    Si       0.00042    0.43079    0.44399    1.000
    N126     N        0.03655    0.48873    0.49002    1.000
    Si127    Si       0.03294    0.46305    0.38378    1.000
    N128     N        0.03067    0.39903    0.45460    1.000
    Si129    Si       0.03019    0.29488    0.53346    1.000
    Si130    Si       0.02295    0.27824    0.60551    1.000
    N131     N        0.04293    0.26953    0.56648    1.000
    N132     N        0.99149    0.31341    0.53245    1.000
    N133     N        0.04454    0.27200    0.49821    1.000
    N134     N        0.04239    0.31626    0.61409    1.000
    N135     N        0.04344    0.41774    0.51764    1.000
    Si136    Si       0.00524    0.40041    0.59632    1.000
    Si137    Si       0.02234    0.48191    0.53051    1.000
    Si138    Si       0.00016    0.41402    0.52081    1.000
    N139     N        0.99453    0.38992    0.55542    1.000
    N140     N        0.98906    0.45631    0.53840    1.000
    N141     N        0.04544    0.41293    0.59354    1.000
    N142     N        0.99459    0.36741    0.61974    1.000
    N143     N        0.00580    0.31001    0.66798    1.000
    Si144    Si       0.02735    0.27274    0.67379    1.000
    Si145    Si       0.02084    0.34216    0.64190    1.000
    Si146    Si       0.99267    0.27548    0.73990    1.000
    N147     N        0.99023    0.40222    0.73490    1.000
    N148     N        0.01765    0.42445    0.67002    1.000
    Si149    Si       0.01388    0.50382    0.68610    1.000
    Si150    Si       0.01396    0.30490    0.83796    1.000
    N151     N        0.00496    0.31604    0.76041    1.000
    N152     N        0.04044    0.33694    0.83154    1.000
    Si153    Si       0.02413    0.37773    0.82296    1.000
    N154     N        0.01849    0.26593    0.82191    1.000
    N155     N        0.03052    0.46462    0.83709    1.000
    N156     N        0.02070    0.43321    0.77929    1.000
    N157     N        0.01419    0.39916    0.85993    1.000
    N158     N        0.03808    0.49851    0.76851    1.000
    Si159    Si       0.03768    0.43435    0.86630    1.000
    Si160    Si       0.00538    0.50247    0.83988    1.000
    Si161    Si       0.04578    0.46320    0.79490    1.000
    Si162    Si       0.03176    0.40062    0.75005    1.000
    N163     N        0.01153    0.29824    0.88194    1.000
    N164     N        0.01050    0.33391    0.94444    1.000
    N165     N        0.04004    0.26260    0.93347    1.000
    Si166    Si       0.04714    0.35345    0.95508    1.000
    N167     N        0.99372    0.27354    0.98571    1.000
    N168     N        0.99188    0.50118    0.88113    1.000
    Si169    Si       0.00986    0.41939    0.94139    1.000
    N170     N        0.00981    0.45186    0.97010    1.000
    Si171    Si       0.02332    0.49188    0.97296    1.000
    N172     N        0.02449    0.44637    0.90521    1.000
    Si173    Si       0.02637    0.48803    0.90198    1.000
    N174     N        0.04592    0.39527    0.93902    1.000
    N175     N        0.03436    0.54134    0.08645    1.000
    N176     N        0.00311    0.57975    0.03743    1.000
    Si177    Si       0.02370    0.61718    0.03861    1.000
    N178     N        0.00087    0.51474    0.00365    1.000
    Si179    Si       0.99432    0.55484    0.07220    1.000
    Si180    Si       0.00142    0.55846    0.99773    1.000
    N181     N        0.02540    0.63230    0.99850    1.000
    N182     N        0.00847    0.63834    0.07296    1.000
    N183     N        0.01008    0.69775    0.00696    1.000
    Si184    Si       0.04535    0.72149    0.99799    1.000
    Si185    Si       0.02771    0.56554    0.12291    1.000
    Si186    Si       0.01407    0.55153    0.19672    1.000
    N187     N        0.03422    0.54253    0.15922    1.000
    N188     N        0.00687    0.59231    0.20657    1.000
    N189     N        0.03614    0.53022    0.22951    1.000
    Si190    Si       0.99361    0.51090    0.23878    1.000
    Si191    Si       0.03624    0.65121    0.18396    1.000
    Si192    Si       0.03432    0.72536    0.16017    1.000
    N193     N        0.99717    0.76721    0.11408    1.000
    N194     N        0.00224    0.70620    0.13936    1.000
    N195     N        0.01717    0.74714    0.19217    1.000
    N196     N        0.99808    0.64427    0.16481    1.000
    N197     N        0.02592    0.65165    0.22664    1.000
    N198     N        0.01771    0.62123    0.34172    1.000
    N199     N        0.99811    0.55345    0.34557    1.000
    N200     N        0.99541    0.61637    0.27554    1.000
    Si201    Si       0.99683    0.59212    0.36649    1.000
    Si202    Si       0.04062    0.54484    0.27066    1.000
    Si203    Si       0.98977    0.52980    0.31117    1.000
    N204     N        0.02829    0.51024    0.29826    1.000
    Si205    Si       0.02493    0.61051    0.24205    1.000
    Si206    Si       0.02688    0.71279    0.37199    1.000
    Si207    Si       0.01835    0.68745    0.25035    1.000
    Si208    Si       0.99956    0.64463    0.31017    1.000
    N209     N        0.02473    0.67542    0.29158    1.000
    N210     N        0.00310    0.74461    0.28948    1.000
    N211     N        0.01664    0.75342    0.36057    1.000
    Si212    Si       0.04414    0.74606    0.27860    1.000
    Si213    Si       0.04625    0.64318    0.36893    1.000
    N214     N        0.01592    0.60948    0.46872    1.000
    Si215    Si       0.03293    0.60272    0.42651    1.000
    Si216    Si       0.00082    0.53412    0.38568    1.000
    N217     N        0.01288    0.57410    0.40182    1.000
    N218     N        0.02736    0.64205    0.40840    1.000
    Si219    Si       0.02446    0.68043    0.43570    1.000
    N220     N        0.04583    0.71364    0.41193    1.000
    Si221    Si       0.04431    0.63579    0.48904    1.000
    N222     N        0.01995    0.58287    0.53588    1.000
    Si223    Si       0.02109    0.54928    0.56296    1.000
    Si224    Si       0.03448    0.61700    0.55782    1.000
    N225     N        0.00279    0.56288    0.59866    1.000
    N226     N        0.00000    0.51867    0.54295    1.000
    Si227    Si       0.99372    0.59334    0.50368    1.000
    N228     N        0.01295    0.62806    0.59425    1.000
    N229     N        0.02070    0.69586    0.58217    1.000
    N230     N        0.02556    0.64852    0.52689    1.000
    Si231    Si       0.00691    0.73434    0.59351    1.000
    Si232    Si       0.01527    0.69007    0.53880    1.000
    Si233    Si       0.02678    0.66500    0.61255    1.000
    Si234    Si       0.03998    0.75025    0.50389    1.000
    N235     N        0.99847    0.74714    0.50193    1.000
    N236     N        0.04966    0.71224    0.52303    1.000
    Si237    Si       0.99600    0.53005    0.62414    1.000
    N238     N        0.99555    0.59725    0.72012    1.000
    N239     N        0.00276    0.53085    0.71569    1.000
    N240     N        0.03066    0.52265    0.64882    1.000
    Si241    Si       0.03161    0.57640    0.73930    1.000
    Si242    Si       0.03912    0.70176    0.69757    1.000
    N243     N        0.99937    0.72087    0.70503    1.000
    Si244    Si       0.99833    0.64193    0.72275    1.000
    N245     N        0.99780    0.67728    0.64486    1.000
    N246     N        0.03484    0.66019    0.71073    1.000
    N247     N        0.99888    0.74286    0.63542    1.000
    N248     N        0.02604    0.60110    0.81837    1.000
    Si249    Si       0.02946    0.56038    0.80738    1.000
    N250     N        0.00674    0.55847    0.77093    1.000
    N251     N        0.03085    0.53764    0.84250    1.000
    Si252    Si       0.00086    0.62109    0.84487    1.000
    Si253    Si       0.99513    0.51302    0.75849    1.000
    N254     N        0.00579    0.71901    0.78103    1.000
    Si255    Si       0.01002    0.67894    0.79512    1.000
    Si256    Si       0.02517    0.74558    0.80960    1.000
    N257     N        0.99592    0.66466    0.83218    1.000
    N258     N        0.04045    0.57019    0.97784    1.000
    N259     N        0.01884    0.51664    0.93733    1.000
    N260     N        0.02314    0.63600    0.88045    1.000
    Si261    Si       0.99603    0.66168    0.98593    1.000
    Si262    Si       0.04453    0.74362    0.87123    1.000
    N263     N        0.99731    0.75254    0.94251    1.000
    N264     N        0.99270    0.67782    0.94651    1.000
    Si265    Si       0.00956    0.67750    0.87228    1.000
    Si266    Si       0.01462    0.71340    0.93553    1.000
    N267     N        0.02351    0.71189    0.89251    1.000
    N268     N        0.01761    0.79937    0.05658    1.000
    Si269    Si       0.00807    0.78205    0.02009    1.000
    Si270    Si       0.00837    0.87299    0.10830    1.000
    N271     N        0.04672    0.85391    0.08894    1.000
    N272     N        0.04393    0.76615    0.00321    1.000
    Si273    Si       0.04908    0.98760    0.04447    1.000
    N274     N        0.02328    0.89861    0.03802    1.000
    N275     N        0.02182    0.99296    0.01308    1.000
    N276     N        0.03556    0.99919    0.08294    1.000
    Si277    Si       0.00095    0.00452    0.10646    1.000
    N278     N        0.03844    0.91874    0.10485    1.000
    Si279    Si       0.02222    0.89728    0.99398    1.000
    Si280    Si       0.02888    0.78751    0.20498    1.000
    N281     N        0.00586    0.80936    0.17528    1.000
    N282     N        0.02255    0.86959    0.14876    1.000
    Si283    Si       0.01151    0.80327    0.13182    1.000
    N284     N        0.00515    0.87651    0.20896    1.000
    N285     N        0.00887    0.80171    0.24187    1.000
    Si286    Si       0.99219    0.84912    0.17493    1.000
    Si287    Si       0.99969    0.99364    0.18311    1.000
    N288     N        0.03873    0.99119    0.20601    1.000
    Si289    Si       0.03303    0.94754    0.13848    1.000
    Si290    Si       0.04285    0.88964    0.18767    1.000
    N291     N        0.00007    0.97807    0.14133    1.000
    N292     N        0.03439    0.93304    0.17845    1.000
    N293     N        0.01974    0.87118    0.34441    1.000
    N294     N        0.00747    0.80677    0.31643    1.000
    Si295    Si       0.02472    0.82494    0.27540    1.000
    Si296    Si       0.03108    0.79361    0.35137    1.000
    N297     N        0.99230    0.85741    0.27870    1.000
    Si298    Si       0.98998    0.84975    0.32103    1.000
    Si299    Si       0.03030    0.95378    0.36025    1.000
    N300     N        0.02600    0.97289    0.32313    1.000
    Si301    Si       0.03533    0.94588    0.28729    1.000
    N302     N        0.00433    0.94413    0.25751    1.000
    N303     N        0.04139    0.82385    0.46771    1.000
    N304     N        0.01435    0.76333    0.43953    1.000
    N305     N        0.01255    0.81315    0.38828    1.000
    Si306    Si       0.00259    0.83794    0.47416    1.000
    Si307    Si       0.01989    0.85577    0.38500    1.000
    Si308    Si       0.99092    0.79221    0.41741    1.000
    N309     N        0.99088    0.94381    0.37408    1.000
    N310     N        0.99047    0.88133    0.47157    1.000
    N311     N        0.04653    0.98344    0.38846    1.000
    Si312    Si       0.99077    0.90608    0.43574    1.000
    N313     N        0.02594    0.93235    0.44088    1.000
    Si314    Si       0.03182    0.86037    0.53718    1.000
    N315     N        0.99743    0.83713    0.52040    1.000
    N316     N        0.03892    0.76524    0.59270    1.000
    Si317    Si       0.03201    0.83959    0.61592    1.000
    N318     N        0.04684    0.85128    0.57678    1.000
    Si319    Si       0.03657    0.93468    0.54320    1.000
    N320     N        0.01571    0.90040    0.52945    1.000
    N321     N        0.01182    0.96629    0.55903    1.000
    Si322    Si       0.03745    0.96701    0.59482    1.000
    N323     N        0.00276    0.00110    0.50308    1.000
    Si324    Si       0.04580    0.99199    0.49805    1.000
    N325     N        0.01711    0.79118    0.73354    1.000
    Si326    Si       0.02675    0.77979    0.63458    1.000
    N327     N        0.99907    0.81379    0.63012    1.000
    N328     N        0.02197    0.87808    0.63008    1.000
    Si329    Si       0.01514    0.95077    0.65809    1.000
    N330     N        0.02123    0.96037    0.70060    1.000
    N331     N        0.00639    0.97683    0.62421    1.000
    Si332    Si       0.02944    0.80969    0.77118    1.000
    Si333    Si       0.00103    0.87139    0.83073    1.000
    N334     N        0.00090    0.83883    0.86069    1.000
    N335     N        0.01153    0.76533    0.84694    1.000
    N336     N        0.99653    0.81599    0.79748    1.000
    Si337    Si       0.98816    0.80297    0.83863    1.000
    Si338    Si       0.03871    0.88544    0.75911    1.000
    N339     N        0.03384    0.88809    0.80390    1.000
    Si340    Si       0.01348    0.98912    0.77714    1.000
    N341     N        0.00987    0.95033    0.79589    1.000
    Si342    Si       0.03076    0.92613    0.82615    1.000
    N343     N        0.00306    0.90689    0.85516    1.000
    N344     N        0.99883    0.89939    0.74320    1.000
    N345     N        0.02576    0.81530    0.92661    1.000
    Si346    Si       0.99550    0.83650    0.90345    1.000
    Si347    Si       0.99287    0.79305    0.94792    1.000
    N348     N        0.01844    0.93460    0.97689    1.000
    N349     N        0.00134    0.94634    0.91259    1.000
    Si350    Si       0.03408    0.97438    0.91747    1.000
    Si351    Si       0.00580    0.97585    0.97795    1.000
    N352     N        0.03045    0.00248    0.88485    1.000
    Si353    Si       0.00862    0.90677    0.89783    1.000
    N354     N        0.02840    0.99996    0.95115    1.000
    N355     N        0.08456    0.05118    0.11135    1.000
    N356     N        0.06530    0.11647    0.01755    1.000
    Si357    Si       0.06618    0.06995    0.02593    1.000
    N358     N        0.07619    0.02104    0.02887    1.000
    N359     N        0.10707    0.07303    0.04811    1.000
    N360     N        0.06457    0.18111    0.05197    1.000
    Si361    Si       0.09302    0.18105    0.08380    1.000
    N362     N        0.08055    0.25219    0.06096    1.000
    N363     N        0.08313    0.20799    0.11975    1.000
    Si364    Si       0.05059    0.22325    0.05025    1.000
    Si365    Si       0.07852    0.06461    0.15178    1.000
    N366     N        0.09112    0.03168    0.17936    1.000
    N367     N        0.07472    0.11220    0.22532    1.000
    Si368    Si       0.10183    0.12366    0.19461    1.000
    N369     N        0.10365    0.09956    0.15710    1.000
    Si370    Si       0.08194    0.13097    0.13324    1.000
    N371     N        0.08277    0.22225    0.19674    1.000
    N372     N        0.08642    0.15692    0.16737    1.000
    Si373    Si       0.09824    0.19916    0.16101    1.000
    Si374    Si       0.04670    0.20591    0.21902    1.000
    N375     N        0.07717    0.08141    0.29033    1.000
    N376     N        0.08668    0.02556    0.26313    1.000
    Si377    Si       0.09478    0.04058    0.30646    1.000
    N378     N        0.05470    0.03649    0.33666    1.000
    Si379    Si       0.08333    0.07095    0.24880    1.000
    N380     N        0.05978    0.21032    0.26218    1.000
    Si381    Si       0.06680    0.14723    0.25245    1.000
    Si382    Si       0.10158    0.20573    0.26961    1.000
    N383     N        0.05123    0.14419    0.29644    1.000
    N384     N        0.05622    0.16344    0.36863    1.000
    Si385    Si       0.06778    0.02021    0.37494    1.000
    Si386    Si       0.09271    0.09601    0.45150    1.000
    N387     N        0.06527    0.12364    0.42919    1.000
    N388     N        0.06338    0.06946    0.46939    1.000
    Si389    Si       0.06576    0.12438    0.38351    1.000
    N390     N        0.04987    0.05202    0.40101    1.000
    Si391    Si       0.07992    0.22383    0.44771    1.000
    N392     N        0.05461    0.19067    0.43357    1.000
    N393     N        0.10081    0.21848    0.48597    1.000
    N394     N        0.06215    0.23024    0.37372    1.000
    Si395    Si       0.08392    0.19601    0.38701    1.000
    N396     N        0.04978    0.14457    0.49367    1.000
    N397     N        0.07523    0.10378    0.53314    1.000
    Si398    Si       0.07588    0.08983    0.57680    1.000
    N399     N        0.09196    0.05103    0.57233    1.000
    N400     N        0.06110    0.02630    0.52106    1.000
    Si401    Si       0.09247    0.02834    0.60855    1.000
    N402     N        0.09981    0.11928    0.59538    1.000
    Si403    Si       0.08363    0.01146    0.55429    1.000
    Si404    Si       0.05600    0.06774    0.51310    1.000
    Si405    Si       0.09139    0.13672    0.50920    1.000
    Si406    Si       0.08616    0.21144    0.52572    1.000
    N407     N        0.09100    0.24760    0.61338    1.000
    N408     N        0.09841    0.17027    0.53607    1.000
    N409     N        0.10747    0.24069    0.55315    1.000
    N410     N        0.08870    0.09360    0.69242    1.000
    N411     N        0.07380    0.05312    0.64204    1.000
    Si412    Si       0.04819    0.16159    0.72837    1.000
    N413     N        0.09128    0.15827    0.71929    1.000
    Si414    Si       0.09507    0.25091    0.65612    1.000
    N415     N        0.09222    0.20755    0.66727    1.000
    N416     N        0.08789    0.22242    0.73536    1.000
    Si417    Si       0.08985    0.17522    0.63792    1.000
    N418     N        0.04751    0.17116    0.62771    1.000
    Si419    Si       0.07410    0.07285    0.76769    1.000
    N420     N        0.09560    0.03585    0.76457    1.000
    N421     N        0.07934    0.08241    0.86479    1.000
    Si422    Si       0.05539    0.10573    0.83789    1.000
    N423     N        0.10204    0.10546    0.76689    1.000
    N424     N        0.09754    0.01354    0.86816    1.000
    N425     N        0.08989    0.13273    0.82943    1.000
    N426     N        0.04736    0.07983    0.80473    1.000
    Si427    Si       0.08784    0.14233    0.78381    1.000
    N428     N        0.07651    0.22917    0.80541    1.000
    Si429    Si       0.09398    0.24754    0.84113    1.000
    Si430    Si       0.10586    0.21438    0.77508    1.000
    N431     N        0.04863    0.15588    0.77151    1.000
    N432     N        0.05469    0.11435    0.94847    1.000
    Si433    Si       0.08477    0.12151    0.98110    1.000
    Si434    Si       0.06871    0.09276    0.90838    1.000
    Si435    Si       0.05206    0.01505    0.98528    1.000
    N436     N        0.10389    0.06893    0.91972    1.000
    N437     N        0.08194    0.13411    0.89658    1.000
    N438     N        0.04530    0.05815    0.98958    1.000
    N439     N        0.09345    0.16052    0.96494    1.000
    N440     N        0.05980    0.19895    0.92575    1.000
    N441     N        0.07460    0.24646    0.87788    1.000
    Si442    Si       0.08986    0.22709    0.91435    1.000
    Si443    Si       0.05875    0.15443    0.92955    1.000
    N444     N        0.09579    0.33143    0.10775    1.000
    Si445    Si       0.06731    0.34344    0.07603    1.000
    Si446    Si       0.06653    0.31754    0.01515    1.000
    N447     N        0.08057    0.38011    0.05675    1.000
    Si448    Si       0.06099    0.39204    0.02001    1.000
    N449     N        0.06990    0.43739    0.08991    1.000
    N450     N        0.08023    0.49913    0.11586    1.000
    Si451    Si       0.10317    0.41032    0.07531    1.000
    Si452    Si       0.05448    0.50501    0.07793    1.000
    N453     N        0.06083    0.49354    0.99345    1.000
    N454     N        0.04732    0.31881    0.16411    1.000
    N455     N        0.07439    0.35781    0.21715    1.000
    Si456    Si       0.05815    0.31974    0.20733    1.000
    Si457    Si       0.06780    0.34696    0.13907    1.000
    N458     N        0.08638    0.29568    0.23327    1.000
    N459     N        0.07830    0.38548    0.15504    1.000
    Si460    Si       0.10330    0.34339    0.24598    1.000
    N461     N        0.08246    0.49648    0.18950    1.000
    Si462    Si       0.06324    0.39426    0.19571    1.000
    N463     N        0.08642    0.42661    0.21156    1.000
    Si464    Si       0.07061    0.45760    0.12726    1.000
    Si465    Si       0.05404    0.49144    0.22028    1.000
    N466     N        0.06719    0.33542    0.27893    1.000
    N467     N        0.06939    0.36823    0.34275    1.000
    Si468    Si       0.07977    0.29298    0.27891    1.000
    Si469    Si       0.08277    0.36822    0.30287    1.000
    N470     N        0.06108    0.30388    0.36445    1.000
    N471     N        0.04807    0.27156    0.29756    1.000
    Si472    Si       0.08434    0.34150    0.37230    1.000
    N473     N        0.07094    0.40394    0.28252    1.000
    N474     N        0.08413    0.46814    0.31393    1.000
    Si475    Si       0.09608    0.44937    0.35162    1.000
    Si476    Si       0.09081    0.43217    0.25508    1.000
    N477     N        0.07489    0.47474    0.25435    1.000
    N478     N        0.05884    0.43268    0.36602    1.000
    Si479    Si       0.10579    0.49808    0.29140    1.000
    Si480    Si       0.07647    0.27015    0.38942    1.000
    N481     N        0.07438    0.35723    0.41222    1.000
    Si482    Si       0.06015    0.29532    0.46367    1.000
    N483     N        0.09805    0.31899    0.47064    1.000
    N484     N        0.06702    0.26394    0.43300    1.000
    Si485    Si       0.10213    0.36334    0.44542    1.000
    Si486    Si       0.05592    0.48237    0.45417    1.000
    Si487    Si       0.06228    0.41270    0.47995    1.000
    N488     N        0.09269    0.37979    0.48574    1.000
    N489     N        0.08277    0.44897    0.46538    1.000
    N490     N        0.09828    0.48420    0.37896    1.000
    Si491    Si       0.08451    0.27261    0.57455    1.000
    N492     N        0.09690    0.37252    0.61290    1.000
    Si493    Si       0.08345    0.33127    0.61703    1.000
    Si494    Si       0.08581    0.34065    0.50515    1.000
    N495     N        0.05441    0.33017    0.52937    1.000
    N496     N        0.10474    0.30845    0.58419    1.000
    Si497    Si       0.06416    0.42476    0.55585    1.000
    Si498    Si       0.08062    0.49513    0.58099    1.000
    N499     N        0.05498    0.46884    0.55733    1.000
    N500     N        0.10440    0.40801    0.55366    1.000
    N501     N        0.06758    0.26357    0.68974    1.000
    N502     N        0.10014    0.31845    0.65592    1.000
    Si503    Si       0.08553    0.29115    0.72283    1.000
    Si504    Si       0.08188    0.34845    0.68449    1.000
    N505     N        0.05946    0.32534    0.71330    1.000
    N506     N        0.05344    0.36680    0.65703    1.000
    N507     N        0.08481    0.48453    0.62411    1.000
    Si508    Si       0.05612    0.43996    0.68552    1.000
    N509     N        0.05534    0.48256    0.68720    1.000
    Si510    Si       0.06753    0.39968    0.62948    1.000
    Si511    Si       0.10159    0.40499    0.72549    1.000
    N512     N        0.08545    0.42939    0.65593    1.000
    N513     N        0.05962    0.41519    0.72100    1.000
    N514     N        0.07984    0.29888    0.76534    1.000
    Si515    Si       0.08401    0.33071    0.83977    1.000
    N516     N        0.10170    0.28953    0.83220    1.000
    N517     N        0.05266    0.36709    0.76470    1.000
    Si518    Si       0.08689    0.37976    0.78650    1.000
    N519     N        0.09293    0.35802    0.87050    1.000
    N520     N        0.10625    0.34588    0.80648    1.000
    Si521    Si       0.04573    0.32692    0.75446    1.000
    N522     N        0.08757    0.45904    0.79039    1.000
    N523     N        0.06308    0.39707    0.82102    1.000
    Si524    Si       0.09586    0.39668    0.85106    1.000
    Si525    Si       0.07350    0.28747    0.94706    1.000
    N526     N        0.07868    0.32900    0.93793    1.000
    N527     N        0.06295    0.28395    0.98851    1.000
    N528     N        0.05670    0.35621    0.99755    1.000
    Si529    Si       0.10627    0.35050    0.91171    1.000
    N530     N        0.06380    0.50465    0.88807    1.000
    N531     N        0.07694    0.42295    0.87894    1.000
    Si532    Si       0.07749    0.41863    0.92204    1.000
    Si533    Si       0.08510    0.45658    0.98212    1.000
    Si534    Si       0.09566    0.49365    0.91689    1.000
    N535     N        0.08741    0.45758    0.93905    1.000
    N536     N        0.08835    0.41516    0.99623    1.000
    N537     N        0.06483    0.61674    0.05307    1.000
    Si538    Si       0.10253    0.61891    0.03536    1.000
    Si539    Si       0.09669    0.51374    0.01028    1.000
    N540     N        0.09210    0.51226    0.05454    1.000
    Si541    Si       0.04915    0.63253    0.09132    1.000
    Si542    Si       0.09284    0.68692    0.05989    1.000
    N543     N        0.08077    0.71073    0.02293    1.000
    N544     N        0.06932    0.66969    0.09494    1.000
    N545     N        0.05305    0.59906    0.12017    1.000
    Si546    Si       0.08498    0.59873    0.15185    1.000
    Si547    Si       0.07367    0.52298    0.15692    1.000
    N548     N        0.09834    0.55843    0.16141    1.000
    N549     N        0.07414    0.62981    0.17910    1.000
    Si550    Si       0.08925    0.69989    0.12098    1.000
    Si551    Si       0.07670    0.70763    0.21487    1.000
    N552     N        0.05313    0.69109    0.18105    1.000
    N553     N        0.06591    0.73514    0.13146    1.000
    N554     N        0.10232    0.67430    0.22700    1.000
    Si555    Si       0.09503    0.57792    0.27531    1.000
    N556     N        0.08655    0.53854    0.28913    1.000
    N557     N        0.05460    0.58767    0.26263    1.000
    N558     N        0.08335    0.62520    0.36381    1.000
    N559     N        0.08680    0.55440    0.36622    1.000
    Si560    Si       0.10541    0.55010    0.32879    1.000
    N561     N        0.07193    0.73038    0.30953    1.000
    Si562    Si       0.06196    0.68818    0.30993    1.000
    N563     N        0.09464    0.66180    0.29890    1.000
    N564     N        0.05083    0.71716    0.24773    1.000
    N565     N        0.04867    0.68142    0.35078    1.000
    N566     N        0.08065    0.61244    0.49066    1.000
    Si567    Si       0.10492    0.59686    0.45702    1.000
    N568     N        0.07596    0.51702    0.43406    1.000
    Si569    Si       0.07355    0.51883    0.38881    1.000
    Si570    Si       0.09570    0.59290    0.38818    1.000
    N571     N        0.07537    0.59565    0.42606    1.000
    N572     N        0.05147    0.67349    0.46922    1.000
    Si573    Si       0.07618    0.70349    0.49003    1.000
    N574     N        0.06741    0.74110    0.47114    1.000
    Si575    Si       0.05423    0.75141    0.43114    1.000
    N576     N        0.07616    0.61439    0.56004    1.000
    N577     N        0.06269    0.53553    0.56905    1.000
    Si578    Si       0.09376    0.62130    0.59964    1.000
    Si579    Si       0.10434    0.60698    0.52714    1.000
    Si580    Si       0.10271    0.55062    0.57052    1.000
    N581     N        0.09925    0.74130    0.56447    1.000
    N582     N        0.06862    0.65421    0.61490    1.000
    N583     N        0.09403    0.61201    0.69997    1.000
    N584     N        0.06592    0.55232    0.72378    1.000
    Si585    Si       0.09977    0.56891    0.70199    1.000
    N586     N        0.09823    0.54482    0.66563    1.000
    Si587    Si       0.07154    0.51184    0.65603    1.000
    N588     N        0.10261    0.66841    0.73966    1.000
    N589     N        0.06044    0.70000    0.66110    1.000
    Si590    Si       0.09290    0.68371    0.63654    1.000
    N591     N        0.06417    0.72844    0.72344    1.000
    Si592    Si       0.07191    0.63926    0.72501    1.000
    N593     N        0.06883    0.55161    0.78998    1.000
    N594     N        0.09186    0.61115    0.81590    1.000
    Si595    Si       0.07172    0.52492    0.75599    1.000
    Si596    Si       0.05506    0.62322    0.79601    1.000
    Si597    Si       0.09811    0.56978    0.81408    1.000
    N598     N        0.05352    0.61160    0.75327    1.000
    N599     N        0.10187    0.54955    0.85316    1.000
    Si600    Si       0.08346    0.69615    0.81274    1.000
    N601     N        0.09702    0.72694    0.78653    1.000
    N602     N        0.05561    0.72051    0.83351    1.000
    N603     N        0.05332    0.66738    0.79522    1.000
    Si604    Si       0.09885    0.71341    0.74498    1.000
    Si605    Si       0.06296    0.54428    0.87133    1.000
    N606     N        0.09116    0.52684    0.94720    1.000
    Si607    Si       0.05650    0.61098    0.97683    1.000
    Si608    Si       0.05408    0.61269    0.89923    1.000
    N609     N        0.05336    0.56958    0.90333    1.000
    Si610    Si       0.05200    0.54730    0.94320    1.000
    N611     N        0.09893    0.60929    0.99281    1.000
    N612     N        0.09097    0.63094    0.88086    1.000
    N613     N        0.06291    0.62859    0.93939    1.000
    Si614    Si       0.09735    0.65083    0.92171    1.000
    N615     N        0.09890    0.69256    0.91337    1.000
    Si616    Si       0.08350    0.72787    0.93182    1.000
    N617     N        0.05154    0.71483    0.95558    1.000
    N618     N        0.07177    0.82631    0.02509    1.000
    N619     N        0.08392    0.78766    0.08062    1.000
    Si620    Si       0.08473    0.86666    0.01888    1.000
    Si621    Si       0.05531    0.81809    0.06572    1.000
    Si622    Si       0.08088    0.79010    0.99774    1.000
    N623     N        0.10564    0.85621    0.11792    1.000
    N624     N        0.09054    0.89016    0.05454    1.000
    N625     N        0.08215    0.96037    0.03439    1.000
    Si626    Si       0.10439    0.99105    0.01210    1.000
    Si627    Si       0.05194    0.89443    0.07173    1.000
    Si628    Si       0.07977    0.77568    0.12225    1.000
    N629     N        0.07333    0.79387    0.21079    1.000
    Si630    Si       0.06416    0.84824    0.13368    1.000
    N631     N        0.07972    0.86897    0.17133    1.000
    N632     N        0.05552    0.80689    0.13610    1.000
    Si633    Si       0.10718    0.77701    0.18771    1.000
    Si634    Si       0.05174    0.94879    0.21657    1.000
    N635     N        0.07274    0.96994    0.14025    1.000
    Si636    Si       0.07285    0.99217    0.17772    1.000
    N637     N        0.06310    0.90608    0.22707    1.000
    N638     N        0.09400    0.96457    0.20237    1.000
    N639     N        0.07471    0.79234    0.34810    1.000
    N640     N        0.06453    0.78418    0.27989    1.000
    N641     N        0.09731    0.87230    0.33762    1.000
    N642     N        0.05899    0.84658    0.26297    1.000
    Si643    Si       0.09042    0.76939    0.31498    1.000
    Si644    Si       0.08283    0.81174    0.25114    1.000
    Si645    Si       0.07544    0.88764    0.26285    1.000
    N646     N        0.06282    0.96808    0.26196    1.000
    N647     N        0.06317    0.92547    0.36211    1.000
    Si648    Si       0.05826    0.89162    0.33330    1.000
    Si649    Si       0.09989    0.98570    0.27610    1.000
    N650     N        0.05492    0.90758    0.29590    1.000
    N651     N        0.10561    0.99750    0.31721    1.000
    Si652    Si       0.09770    0.86140    0.37929    1.000
    N653     N        0.07645    0.78404    0.41747    1.000
    N654     N        0.05971    0.85509    0.40066    1.000
    Si655    Si       0.06569    0.82455    0.43236    1.000
    N656     N        0.09797    0.84666    0.45152    1.000
    Si657    Si       0.10316    0.79156    0.38450    1.000
    Si658    Si       0.09755    0.93378    0.38920    1.000
    Si659    Si       0.05121    0.96534    0.42899    1.000
    N660     N        0.09205    0.95540    0.42773    1.000
    N661     N        0.10933    0.91010    0.47178    1.000
    N662     N        0.05014    0.00035    0.45549    1.000
    N663     N        0.07063    0.86098    0.51599    1.000
    Si664    Si       0.08872    0.84342    0.59184    1.000
    Si665    Si       0.07005    0.77411    0.56342    1.000
    N666     N        0.09371    0.80778    0.56476    1.000
    N667     N        0.04999    0.78530    0.52447    1.000
    Si668    Si       0.06875    0.81820    0.50376    1.000
    N669     N        0.08826    0.87861    0.61845    1.000
    Si670    Si       0.10313    0.88613    0.50744    1.000
    N671     N        0.06413    0.95875    0.51827    1.000
    N672     N        0.06464    0.99980    0.59229    1.000
    Si673    Si       0.05390    0.90579    0.61921    1.000
    N674     N        0.05421    0.92722    0.58155    1.000
    N675     N        0.06842    0.81813    0.62673    1.000
    Si676    Si       0.08562    0.80375    0.66722    1.000
    N677     N        0.08491    0.79925    0.71637    1.000
    Si678    Si       0.05039    0.76973    0.71356    1.000
    N679     N        0.04696    0.77729    0.67208    1.000
    N680     N        0.09640    0.96779    0.69848    1.000
    Si681    Si       0.09523    0.94201    0.66417    1.000
    N682     N        0.05612    0.94153    0.64543    1.000
    N683     N        0.06528    0.91641    0.73971    1.000
    Si684    Si       0.10620    0.90727    0.72710    1.000
    Si685    Si       0.05910    0.95965    0.72245    1.000
    N686     N        0.10536    0.90368    0.68411    1.000
    Si687    Si       0.09210    0.76844    0.80047    1.000
    N688     N        0.05188    0.84291    0.75849    1.000
    N689     N        0.04995    0.77516    0.78882    1.000
    Si690    Si       0.09275    0.82911    0.75036    1.000
    Si691    Si       0.07837    0.00055    0.78193    1.000
    Si692    Si       0.06191    0.99450    0.85667    1.000
    N693     N        0.06434    0.94710    0.84296    1.000
    N694     N        0.04972    0.98823    0.75313    1.000
    Si695    Si       0.10671    0.94117    0.82442    1.000
    N696     N        0.05195    0.00980    0.81582    1.000
    Si697    Si       0.06540    0.80007    0.91796    1.000
    N698     N        0.07956    0.82635    0.88419    1.000
    N699     N        0.08967    0.80127    0.95637    1.000
    Si700    Si       0.08501    0.86791    0.89422    1.000
    N701     N        0.06123    0.88207    0.98470    1.000
    N702     N        0.07099    0.75849    0.90418    1.000
    Si703    Si       0.09813    0.88463    0.96247    1.000
    Si704    Si       0.10497    0.96506    0.94301    1.000
    N705     N        0.05119    0.89656    0.90108    1.000
    N706     N        0.07406    0.95647    0.91285    1.000
    Si707    Si       0.07538    0.92775    0.88218    1.000
    N708     N        0.10614    0.89842    0.87017    1.000
    N709     N        0.08861    0.99347    0.97224    1.000
    Si710    Si       0.13561    0.09081    0.02194    1.000
    N711     N        0.14394    0.09006    0.10224    1.000
    N712     N        0.14434    0.02529    0.07340    1.000
    Si713    Si       0.12134    0.05796    0.08617    1.000
    N714     N        0.14762    0.12638    0.04040    1.000
    Si715    Si       0.14458    0.12950    0.08443    1.000
    N716     N        0.12697    0.20549    0.07294    1.000
    N717     N        0.13851    0.24602    0.00997    1.000
    Si718    Si       0.11009    0.24146    0.09494    1.000
    N719     N        0.10800    0.14479    0.10131    1.000
    N720     N        0.15589    0.05545    0.16381    1.000
    Si721    Si       0.14990    0.09304    0.14486    1.000
    Si722    Si       0.12780    0.04306    0.19751    1.000
    N723     N        0.12313    0.07035    0.23186    1.000
    N724     N        0.14688    0.00719    0.21065    1.000
    Si725    Si       0.15347    0.23854    0.16964    1.000
    N726     N        0.14080    0.19670    0.16919    1.000
    N727     N        0.14108    0.13418    0.20577    1.000
    N728     N        0.13486    0.24663    0.13154    1.000
    Si729    Si       0.10502    0.26087    0.21711    1.000
    Si730    Si       0.14646    0.15019    0.24560    1.000
    N731     N        0.13784    0.05579    0.30045    1.000
    Si732    Si       0.15240    0.07303    0.26333    1.000
    N733     N        0.16176    0.07163    0.36980    1.000
    N734     N        0.16652    0.01252    0.34165    1.000
    N735     N        0.10610    0.16540    0.25402    1.000
    Si736    Si       0.13623    0.14055    0.36767    1.000
    N737     N        0.12409    0.21260    0.30724    1.000
    Si738    Si       0.14993    0.18908    0.33364    1.000
    Si739    Si       0.13452    0.25267    0.29422    1.000
    N740     N        0.15588    0.14608    0.32981    1.000
    N741     N        0.11821    0.24204    0.25291    1.000
    N742     N        0.12172    0.18195    0.36769    1.000
    Si743    Si       0.12271    0.07044    0.38657    1.000
    N744     N        0.12316    0.07360    0.42950    1.000
    N745     N        0.11812    0.11532    0.48277    1.000
    Si746    Si       0.15877    0.06463    0.45066    1.000
    N747     N        0.14806    0.05105    0.49137    1.000
    N748     N        0.10598    0.11009    0.37453    1.000
    N749     N        0.10808    0.02954    0.37681    1.000
    N750     N        0.16123    0.19027    0.45875    1.000
    Si751    Si       0.14871    0.18749    0.41508    1.000
    N752     N        0.16073    0.14591    0.40404    1.000
    Si753    Si       0.13820    0.24837    0.41593    1.000
    Si754    Si       0.14306    0.22611    0.47826    1.000
    N755     N        0.11095    0.21298    0.41977    1.000
    N756     N        0.13692    0.02049    0.61014    1.000
    N757     N        0.14317    0.11978    0.54404    1.000
    Si758    Si       0.14715    0.09332    0.50904    1.000
    N759     N        0.15853    0.24101    0.59161    1.000
    Si760    Si       0.11895    0.22214    0.59148    1.000
    Si761    Si       0.12038    0.15010    0.57058    1.000
    Si762    Si       0.15176    0.25328    0.55010    1.000
    N763     N        0.11232    0.18237    0.60045    1.000
    N764     N        0.16265    0.13650    0.60464    1.000
    Si765    Si       0.10829    0.06156    0.66940    1.000
    N766     N        0.14327    0.07762    0.64517    1.000
    Si767    Si       0.11324    0.12794    0.69848    1.000
    Si768    Si       0.13163    0.11749    0.62857    1.000
    N769     N        0.12271    0.03408    0.69915    1.000
    N770     N        0.15059    0.11779    0.72043    1.000
    Si771    Si       0.13333    0.03542    0.74187    1.000
    N772     N        0.14973    0.20265    0.71424    1.000
    N773     N        0.11674    0.14539    0.65880    1.000
    Si774    Si       0.10738    0.19771    0.70582    1.000
    Si775    Si       0.14433    0.10080    0.76016    1.000
    Si776    Si       0.11009    0.12209    0.86577    1.000
    N777     N        0.16343    0.06126    0.76182    1.000
    N778     N        0.14337    0.09241    0.86960    1.000
    N779     N        0.16441    0.12373    0.79184    1.000
    N780     N        0.14406    0.23413    0.77703    1.000
    N781     N        0.12977    0.22265    0.84482    1.000
    Si782    Si       0.14784    0.15810    0.81413    1.000
    N783     N        0.14486    0.15520    0.86067    1.000
    N784     N        0.11742    0.17464    0.78746    1.000
    Si785    Si       0.16100    0.22687    0.81472    1.000
    N786     N        0.11823    0.09685    0.98224    1.000
    Si787    Si       0.13572    0.08915    0.94175    1.000
    N788     N        0.15226    0.03225    0.88523    1.000
    Si789    Si       0.11211    0.05412    0.87881    1.000
    N790     N        0.14503    0.13009    0.92611    1.000
    Si791    Si       0.12819    0.16770    0.94080    1.000
    N792     N        0.12400    0.19914    0.91145    1.000
    N793     N        0.16360    0.18435    0.96338    1.000
    Si794    Si       0.14609    0.19625    0.87370    1.000
    N795     N        0.13673    0.27560    0.07546    1.000
    Si796    Si       0.14578    0.33058    0.03087    1.000
    N797     N        0.15069    0.34651    0.06985    1.000
    Si798    Si       0.13361    0.31499    0.09453    1.000
    Si799    Si       0.11468    0.26945    0.03842    1.000
    N800     N        0.14813    0.36445    0.99958    1.000
    N801     N        0.10841    0.31194    0.02889    1.000
    N802     N        0.12992    0.39918    0.10647    1.000
    N803     N        0.13202    0.42134    0.04462    1.000
    N804     N        0.14628    0.47363    0.08782    1.000
    Si805    Si       0.13057    0.40478    0.00432    1.000
    N806     N        0.12036    0.47704    0.00046    1.000
    Si807    Si       0.16559    0.44599    0.05820    1.000
    Si808    Si       0.16587    0.30612    0.20811    1.000
    N809     N        0.14075    0.33876    0.22131    1.000
    N810     N        0.14327    0.26968    0.19710    1.000
    N811     N        0.16563    0.30640    0.12398    1.000
    N812     N        0.10953    0.44647    0.14663    1.000
    Si813    Si       0.11585    0.40317    0.14638    1.000
    N814     N        0.14759    0.38532    0.17114    1.000
    Si815    Si       0.10637    0.45883    0.18990    1.000
    N816     N        0.14348    0.46615    0.20949    1.000
    Si817    Si       0.14601    0.46515    0.12953    1.000
    N818     N        0.15103    0.50198    0.15218    1.000
    N819     N        0.12289    0.36136    0.28552    1.000
    N820     N        0.12629    0.33453    0.35746    1.000
    Si821    Si       0.13828    0.32680    0.31616    1.000
    N822     N        0.11785    0.29286    0.30030    1.000
    N823     N        0.13683    0.43284    0.34930    1.000
    N824     N        0.13232    0.43180    0.27033    1.000
    Si825    Si       0.15237    0.39379    0.27840    1.000
    N826     N        0.14431    0.50386    0.26986    1.000
    Si827    Si       0.15521    0.46607    0.25178    1.000
    Si828    Si       0.13888    0.49975    0.37177    1.000
    Si829    Si       0.14310    0.30843    0.46089    1.000
    Si830    Si       0.14490    0.31769    0.39311    1.000
    N831     N        0.14202    0.33994    0.42988    1.000
    N832     N        0.12077    0.27928    0.39264    1.000
    N833     N        0.14425    0.26382    0.45630    1.000
    Si834    Si       0.16027    0.38206    0.42825    1.000
    N835     N        0.16044    0.44381    0.47904    1.000
    N836     N        0.12551    0.40560    0.43446    1.000
    N837     N        0.13538    0.48726    0.44845    1.000
    Si838    Si       0.12384    0.44451    0.45429    1.000
    Si839    Si       0.13814    0.32880    0.56287    1.000
    N840     N        0.15489    0.36265    0.58097    1.000
    N841     N        0.12307    0.34587    0.52713    1.000
    N842     N        0.15939    0.29549    0.54803    1.000
    Si843    Si       0.12322    0.38926    0.51981    1.000
    N844     N        0.13846    0.43237    0.60576    1.000
    Si845    Si       0.12600    0.39401    0.58904    1.000
    Si846    Si       0.16113    0.50555    0.55291    1.000
    N847     N        0.12645    0.30353    0.71429    1.000
    Si848    Si       0.13734    0.30296    0.67028    1.000
    Si849    Si       0.15560    0.36368    0.69760    1.000
    N850     N        0.11301    0.37296    0.70036    1.000
    N851     N        0.13586    0.26206    0.65861    1.000
    Si852    Si       0.16284    0.30402    0.73622    1.000
    N853     N        0.14498    0.47115    0.66271    1.000
    Si854    Si       0.11466    0.45502    0.63632    1.000
    Si855    Si       0.15434    0.44621    0.69743    1.000
    N856     N        0.11945    0.44364    0.72185    1.000
    N857     N        0.15484    0.30449    0.77818    1.000
    Si858    Si       0.11438    0.30427    0.79297    1.000
    Si859    Si       0.15349    0.40851    0.79042    1.000
    N860     N        0.15080    0.45494    0.78400    1.000
    N861     N        0.13115    0.41431    0.82984    1.000
    N862     N        0.11940    0.39657    0.76500    1.000
    N863     N        0.12548    0.48426    0.84510    1.000
    Si864    Si       0.11692    0.46575    0.75658    1.000
    Si865    Si       0.12173    0.45437    0.81682    1.000
    N866     N        0.10662    0.26210    0.93240    1.000
    Si867    Si       0.14287    0.28698    0.92437    1.000
    N868     N        0.14141    0.32639    0.90449    1.000
    N869     N        0.16061    0.30294    0.96061    1.000
    Si870    Si       0.15298    0.40836    0.93754    1.000
    N871     N        0.11455    0.39232    0.92467    1.000
    Si872    Si       0.16150    0.46871    0.99094    1.000
    N873     N        0.15497    0.42760    0.97575    1.000
    N874     N        0.13584    0.50400    0.90813    1.000
    Si875    Si       0.13626    0.58736    0.09438    1.000
    Si876    Si       0.15245    0.56489    0.02556    1.000
    N877     N        0.12750    0.58800    0.05347    1.000
    N878     N        0.13285    0.54496    0.10458    1.000
    N879     N        0.12809    0.54257    0.99756    1.000
    Si880    Si       0.11849    0.50826    0.08839    1.000
    N881     N        0.15320    0.72115    0.02392    1.000
    N882     N        0.11911    0.65894    0.03982    1.000
    Si883    Si       0.15570    0.71817    0.08943    1.000
    Si884    Si       0.11537    0.73242    0.00677    1.000
    N885     N        0.11340    0.71350    0.08690    1.000
    Si886    Si       0.15639    0.67857    0.03440    1.000
    N887     N        0.12121    0.60990    0.12814    1.000
    Si888    Si       0.15649    0.61643    0.15326    1.000
    Si889    Si       0.13839    0.54405    0.15025    1.000
    Si890    Si       0.14863    0.60810    0.22909    1.000
    N891     N        0.13823    0.62686    0.19240    1.000
    N892     N        0.12733    0.57287    0.24532    1.000
    N893     N        0.11343    0.68334    0.15602    1.000
    N894     N        0.10726    0.73627    0.20498    1.000
    Si895    Si       0.14564    0.72314    0.22677    1.000
    Si896    Si       0.15655    0.69189    0.15731    1.000
    Si897    Si       0.10551    0.65668    0.18851    1.000
    N898     N        0.13262    0.51330    0.32913    1.000
    Si899    Si       0.15487    0.54161    0.24872    1.000
    N900     N        0.11002    0.59126    0.31272    1.000
    Si901    Si       0.10900    0.63236    0.32869    1.000
    N902     N        0.15042    0.63582    0.26296    1.000
    N903     N        0.15030    0.64421    0.33112    1.000
    N904     N        0.14614    0.70353    0.26681    1.000
    Si905    Si       0.12063    0.66681    0.26490    1.000
    Si906    Si       0.15871    0.75457    0.34657    1.000
    N907     N        0.13847    0.53147    0.40179    1.000
    N908     N        0.12436    0.55871    0.46351    1.000
    N909     N        0.14057    0.59699    0.39247    1.000
    Si910    Si       0.11868    0.52455    0.43829    1.000
    Si911    Si       0.15648    0.62700    0.41841    1.000
    N912     N        0.13186    0.63004    0.45299    1.000
    Si913    Si       0.15327    0.71816    0.48007    1.000
    N914     N        0.11893    0.69484    0.48766    1.000
    Si915    Si       0.13964    0.65647    0.48648    1.000
    N916     N        0.15899    0.73082    0.44032    1.000
    N917     N        0.13095    0.75820    0.37843    1.000
    N918     N        0.16430    0.66638    0.40027    1.000
    N919     N        0.12062    0.56693    0.53402    1.000
    Si920    Si       0.14533    0.55287    0.50163    1.000
    N921     N        0.15722    0.51136    0.51011    1.000
    N922     N        0.12056    0.51064    0.57004    1.000
    N923     N        0.10438    0.57650    0.60675    1.000
    N924     N        0.13064    0.64188    0.59451    1.000
    N925     N        0.13281    0.63923    0.52606    1.000
    Si926    Si       0.15190    0.65807    0.56044    1.000
    Si927    Si       0.13395    0.73046    0.58382    1.000
    N928     N        0.16035    0.70044    0.56529    1.000
    N929     N        0.16159    0.76191    0.60039    1.000
    Si930    Si       0.15932    0.62560    0.62110    1.000
    Si931    Si       0.12795    0.56266    0.64049    1.000
    N932     N        0.14270    0.60183    0.65302    1.000
    N933     N        0.13894    0.56918    0.72446    1.000
    N934     N        0.16066    0.53492    0.63283    1.000
    N935     N        0.12280    0.66667    0.66443    1.000
    N936     N        0.12357    0.71370    0.62371    1.000
    Si937    Si       0.12894    0.62839    0.68190    1.000
    N938     N        0.15813    0.63714    0.71336    1.000
    N939     N        0.13105    0.74204    0.73274    1.000
    Si940    Si       0.14329    0.75030    0.64078    1.000
    Si941    Si       0.15555    0.69058    0.64825    1.000
    N942     N        0.13535    0.56286    0.79391    1.000
    N943     N        0.15018    0.61298    0.84452    1.000
    Si944    Si       0.14337    0.54025    0.75665    1.000
    N945     N        0.15319    0.62131    0.77105    1.000
    Si946    Si       0.13309    0.52053    0.86486    1.000
    Si947    Si       0.15823    0.59749    0.80534    1.000
    N948     N        0.11115    0.50843    0.75313    1.000
    Si949    Si       0.11272    0.63427    0.84529    1.000
    Si950    Si       0.15868    0.68584    0.81698    1.000
    N951     N        0.15618    0.69227    0.77293    1.000
    N952     N        0.11698    0.67490    0.82970    1.000
    Si953    Si       0.14355    0.65656    0.74905    1.000
    Si954    Si       0.13542    0.60117    0.96785    1.000
    N955     N        0.15377    0.56730    0.94240    1.000
    Si956    Si       0.13711    0.52796    0.95573    1.000
    N957     N        0.11510    0.73129    0.96264    1.000
    N958     N        0.16159    0.73460    0.90141    1.000
    Si959    Si       0.15360    0.72980    0.94340    1.000
    N960     N        0.13226    0.63523    0.94016    1.000
    Si961    Si       0.11961    0.86673    0.07820    1.000
    N962     N        0.13157    0.83007    0.05784    1.000
    N963     N        0.15526    0.76426    0.08444    1.000
    Si964    Si       0.12439    0.78789    0.06074    1.000
    N965     N        0.11278    0.77324    0.02006    1.000
    N966     N        0.12277    0.87041    0.99650    1.000
    N967     N        0.15784    0.88524    0.07923    1.000
    N968     N        0.12123    0.94548    0.08844    1.000
    N969     N        0.14473    0.92707    0.02813    1.000
    N970     N        0.14613    0.99304    0.01537    1.000
    Si971    Si       0.10841    0.93192    0.05006    1.000
    Si972    Si       0.16315    0.92713    0.08735    1.000
    N973     N        0.16507    0.75976    0.23381    1.000
    N974     N        0.16133    0.86709    0.16536    1.000
    Si975    Si       0.15645    0.76855    0.13139    1.000
    N976     N        0.11689    0.77332    0.14565    1.000
    N977     N        0.13624    0.80853    0.19345    1.000
    Si978    Si       0.15732    0.80363    0.23161    1.000
    Si979    Si       0.11907    0.87392    0.15388    1.000
    N980     N        0.15981    0.93880    0.19834    1.000
    Si981    Si       0.13400    0.96807    0.21686    1.000
    Si982    Si       0.11284    0.95688    0.13016    1.000
    N983     N        0.12794    0.91819    0.14807    1.000
    N984     N        0.14409    0.98865    0.13764    1.000
    N985     N        0.12458    0.81691    0.25944    1.000
    Si986    Si       0.15037    0.80689    0.29485    1.000
    N987     N        0.13561    0.77187    0.31297    1.000
    Si988    Si       0.13357    0.87516    0.31313    1.000
    N989     N        0.16047    0.83976    0.32017    1.000
    N990     N        0.11704    0.88908    0.27356    1.000
    Si991    Si       0.14662    0.92104    0.27203    1.000
    N992     N        0.13187    0.95963    0.26024    1.000
    Si993    Si       0.12880    0.99749    0.35367    1.000
    N994     N        0.15622    0.91340    0.31576    1.000
    Si995    Si       0.13502    0.83113    0.47149    1.000
    N996     N        0.12472    0.82868    0.38768    1.000
    N997     N        0.15559    0.86744    0.44294    1.000
    N998     N        0.15782    0.80519    0.44481    1.000
    Si999    Si       0.16227    0.83620    0.41340    1.000
    Si1000   Si       0.11526    0.88401    0.43992    1.000
    N1001    N        0.13101    0.95862    0.37368    1.000
    N1002    N        0.11171    0.89538    0.40015    1.000
    N1003    N        0.15927    0.93752    0.43982    1.000
    N1004    N        0.12873    0.97711    0.49026    1.000
    Si1005   Si       0.12217    0.94991    0.45849    1.000
    Si1006   Si       0.12573    0.82363    0.53791    1.000
    N1007    N        0.12799    0.85496    0.57302    1.000
    N1008    N        0.14150    0.85732    0.50923    1.000
    N1009    N        0.10896    0.80566    0.49848    1.000
    N1010    N        0.16284    0.80278    0.54521    1.000
    Si1011   Si       0.16396    0.86197    0.59401    1.000
    N1012    N        0.12433    0.91646    0.53198    1.000
    Si1013   Si       0.15194    0.99505    0.57622    1.000
    N1014    N        0.11635    0.98379    0.55488    1.000
    Si1015   Si       0.16172    0.89481    0.52924    1.000
    Si1016   Si       0.10901    0.95542    0.52220    1.000
    Si1017   Si       0.15812    0.00822    0.49894    1.000
    N1018    N        0.15637    0.87746    0.63280    1.000
    Si1019   Si       0.11652    0.87542    0.65275    1.000
    N1020    N        0.11464    0.83921    0.67583    1.000
    Si1021   Si       0.12476    0.77684    0.70979    1.000
    Si1022   Si       0.14056    0.84521    0.70861    1.000
    N1023    N        0.12080    0.77562    0.66677    1.000
    N1024    N        0.15151    0.80769    0.72728    1.000
    N1025    N        0.11916    0.86636    0.74195    1.000
    Si1026   Si       0.16778    0.95840    0.64059    1.000
    Si1027   Si       0.13279    0.99179    0.69676    1.000
    N1028    N        0.12593    0.95056    0.63755    1.000
    N1029    N        0.15351    0.99724    0.73988    1.000
    N1030    N        0.13960    0.84450    0.85194    1.000
    Si1031   Si       0.15256    0.80173    0.77178    1.000
    N1032    N        0.10902    0.80164    0.77730    1.000
    Si1033   Si       0.11656    0.81146    0.86561    1.000
    N1034    N        0.10297    0.77993    0.84084    1.000
    Si1035   Si       0.13866    0.88782    0.84558    1.000
    Si1036   Si       0.14620    0.89249    0.76973    1.000
    N1037    N        0.13512    0.96020    0.85113    1.000
    Si1038   Si       0.14190    0.96333    0.76844    1.000
    N1039    N        0.12624    0.90340    0.80609    1.000
    N1040    N        0.10698    0.96956    0.79074    1.000
    N1041    N        0.13851    0.92830    0.74579    1.000
    N1042    N        0.10813    0.85969    0.93030    1.000
    N1043    N        0.14050    0.79879    0.90448    1.000
    Si1044   Si       0.12458    0.81989    0.93928    1.000
    N1045    N        0.16153    0.82175    0.96319    1.000
    Si1046   Si       0.14973    0.91610    0.98611    1.000
    Si1047   Si       0.13394    0.99231    0.88012    1.000
    N1048    N        0.11421    0.92613    0.96135    1.000
    N1049    N        0.14035    0.97577    0.92041    1.000
    N1050    N        0.19558    0.01780    0.11792    1.000
    N1051    N        0.22195    0.12428    0.03764    1.000
    Si1052   Si       0.16591    0.02469    0.03665    1.000
    N1053    N        0.16686    0.06186    0.01712    1.000
    Si1054   Si       0.16935    0.20009    0.06776    1.000
    Si1055   Si       0.18626    0.14731    0.03758    1.000
    N1056    N        0.19138    0.23057    0.08848    1.000
    N1057    N        0.18198    0.18956    0.02771    1.000
    N1058    N        0.17734    0.15886    0.08276    1.000
    Si1059   Si       0.20255    0.14765    0.11887    1.000
    Si1060   Si       0.17447    0.01588    0.15561    1.000
    Si1061   Si       0.18792    0.01327    0.22282    1.000
    N1062    N        0.20518    0.01074    0.18411    1.000
    N1063    N        0.17304    0.13141    0.14627    1.000
    Si1064   Si       0.16378    0.16109    0.17906    1.000
    Si1065   Si       0.20984    0.19079    0.22972    1.000
    N1066    N        0.19293    0.24650    0.15634    1.000
    N1067    N        0.22152    0.18482    0.12991    1.000
    N1068    N        0.20374    0.17193    0.19051    1.000
    N1069    N        0.21616    0.23435    0.22713    1.000
    N1070    N        0.19827    0.08676    0.31201    1.000
    Si1071   Si       0.18295    0.12651    0.30361    1.000
    Si1072   Si       0.17091    0.05486    0.33028    1.000
    N1073    N        0.21915    0.03616    0.36772    1.000
    N1074    N        0.18389    0.04661    0.24806    1.000
    N1075    N        0.15908    0.11555    0.26912    1.000
    N1076    N        0.19180    0.20042    0.34077    1.000
    N1077    N        0.17691    0.25528    0.29317    1.000
    N1078    N        0.21921    0.15191    0.29747    1.000
    N1079    N        0.17317    0.18219    0.24941    1.000
    N1080    N        0.22031    0.09927    0.39686    1.000
    N1081    N        0.18557    0.04005    0.42857    1.000
    Si1082   Si       0.21354    0.10832    0.48973    1.000
    Si1083   Si       0.19759    0.06244    0.39406    1.000
    N1084    N        0.18629    0.09855    0.45718    1.000
    Si1085   Si       0.19312    0.12306    0.42053    1.000
    Si1086   Si       0.20409    0.22571    0.37468    1.000
    N1087    N        0.21985    0.15417    0.43414    1.000
    N1088    N        0.16899    0.22412    0.39901    1.000
    Si1089   Si       0.20319    0.17866    0.46421    1.000
    N1090    N        0.22036    0.21780    0.47365    1.000
    N1091    N        0.20888    0.15253    0.49860    1.000
    Si1092   Si       0.19289    0.05147    0.54633    1.000
    Si1093   Si       0.17718    0.11149    0.57084    1.000
    N1094    N        0.19118    0.08770    0.52151    1.000
    N1095    N        0.17899    0.06950    0.58262    1.000
    N1096    N        0.17183    0.01283    0.54114    1.000
    N1097    N        0.21819    0.12922    0.56619    1.000
    Si1098   Si       0.16557    0.05038    0.61973    1.000
    Si1099   Si       0.20773    0.22609    0.51525    1.000
    N1100    N        0.22052    0.20044    0.54834    1.000
    N1101    N        0.16349    0.22691    0.51907    1.000
    N1102    N        0.22394    0.09704    0.69830    1.000
    N1103    N        0.20431    0.03894    0.63985    1.000
    N1104    N        0.21205    0.02750    0.70809    1.000
    Si1105   Si       0.19117    0.12530    0.70980    1.000
    N1106    N        0.20853    0.14982    0.74063    1.000
    N1107    N        0.17093    0.19972    0.64727    1.000
    N1108    N        0.19635    0.14783    0.67097    1.000
    Si1109   Si       0.17132    0.23206    0.74314    1.000
    Si1110   Si       0.18616    0.16347    0.62805    1.000
    Si1111   Si       0.21328    0.25155    0.69315    1.000
    Si1112   Si       0.16669    0.24120    0.63407    1.000
    N1113    N        0.21465    0.20814    0.70140    1.000
    Si1114   Si       0.17955    0.18744    0.68629    1.000
    N1115    N        0.19296    0.04500    0.82912    1.000
    Si1116   Si       0.20060    0.05323    0.78529    1.000
    Si1117   Si       0.18178    0.06948    0.86287    1.000
    N1118    N        0.21799    0.01381    0.77374    1.000
    Si1119   Si       0.21847    0.01765    0.85109    1.000
    Si1120   Si       0.20699    0.12922    0.78065    1.000
    N1121    N        0.20483    0.10693    0.86898    1.000
    N1122    N        0.17891    0.18731    0.81702    1.000
    N1123    N        0.21119    0.22492    0.76289    1.000
    Si1124   Si       0.22169    0.18600    0.82405    1.000
    Si1125   Si       0.19589    0.25216    0.86861    1.000
    Si1126   Si       0.18216    0.03390    0.91657    1.000
    N1127    N        0.19054    0.11533    0.97900    1.000
    Si1128   Si       0.19054    0.07069    0.98279    1.000
    N1129    N        0.21656    0.04206    0.88833    1.000
    N1130    N        0.17097    0.06274    0.94560    1.000
    Si1131   Si       0.16997    0.12587    0.88881    1.000
    Si1132   Si       0.19352    0.15243    0.95533    1.000
    Si1133   Si       0.21794    0.18982    0.89839    1.000
    N1134    N        0.20193    0.15142    0.91050    1.000
    N1135    N        0.18582    0.21372    0.88390    1.000
    N1136    N        0.19372    0.24515    0.97864    1.000
    Si1137   Si       0.16661    0.21422    0.99470    1.000
    N1138    N        0.17865    0.30421    0.02328    1.000
    Si1139   Si       0.21870    0.31935    0.02144    1.000
    Si1140   Si       0.17225    0.26243    0.11552    1.000
    N1141    N        0.22058    0.34726    0.05483    1.000
    Si1142   Si       0.16711    0.38406    0.08670    1.000
    N1143    N        0.19327    0.41301    0.06365    1.000
    N1144    N        0.18361    0.47302    0.02780    1.000
    N1145    N        0.18999    0.37412    0.12193    1.000
    N1146    N        0.19330    0.33348    0.18367    1.000
    Si1147   Si       0.19330    0.33442    0.13901    1.000
    N1148    N        0.19112    0.29813    0.24087    1.000
    Si1149   Si       0.16944    0.37019    0.20655    1.000
    N1150    N        0.17686    0.39086    0.24334    1.000
    N1151    N        0.20511    0.39910    0.19106    1.000
    N1152    N        0.21172    0.48311    0.18463    1.000
    Si1153   Si       0.22108    0.46109    0.14958    1.000
    Si1154   Si       0.20735    0.42093    0.23302    1.000
    Si1155   Si       0.17115    0.49292    0.19047    1.000
    N1156    N        0.18124    0.44222    0.14083    1.000
    Si1157   Si       0.18435    0.40233    0.15374    1.000
    N1158    N        0.18191    0.31967    0.31432    1.000
    Si1159   Si       0.20469    0.35475    0.31886    1.000
    Si1160   Si       0.20043    0.28012    0.31915    1.000
    N1161    N        0.21675    0.26359    0.35669    1.000
    Si1162   Si       0.20291    0.26026    0.25898    1.000
    Si1163   Si       0.22185    0.32140    0.26261    1.000
    N1164    N        0.17728    0.38781    0.31482    1.000
    N1165    N        0.20058    0.49148    0.31597    1.000
    N1166    N        0.21061    0.43234    0.35367    1.000
    Si1167   Si       0.21758    0.47514    0.35431    1.000
    Si1168   Si       0.17250    0.41093    0.35232    1.000
    N1169    N        0.19687    0.45685    0.25531    1.000
    N1170    N        0.18770    0.31373    0.38772    1.000
    Si1171   Si       0.20507    0.35276    0.39030    1.000
    N1172    N        0.18185    0.31484    0.48018    1.000
    Si1173   Si       0.21970    0.31281    0.45651    1.000
    N1174    N        0.17662    0.38410    0.38796    1.000
    N1175    N        0.22420    0.27619    0.43393    1.000
    Si1176   Si       0.20647    0.50687    0.41235    1.000
    Si1177   Si       0.18719    0.41147    0.48889    1.000
    Si1178   Si       0.17045    0.48653    0.47652    1.000
    N1179    N        0.18135    0.48793    0.37869    1.000
    N1180    N        0.19470    0.38923    0.45313    1.000
    N1181    N        0.20291    0.50757    0.45590    1.000
    Si1182   Si       0.19402    0.30716    0.52187    1.000
    N1183    N        0.20981    0.34199    0.54335    1.000
    Si1184   Si       0.18723    0.37741    0.55594    1.000
    N1185    N        0.21620    0.26794    0.52442    1.000
    N1186    N        0.21528    0.31412    0.61205    1.000
    N1187    N        0.20781    0.41269    0.57611    1.000
    N1188    N        0.17917    0.46550    0.55532    1.000
    Si1189   Si       0.17816    0.44435    0.59385    1.000
    Si1190   Si       0.21734    0.44528    0.54693    1.000
    N1191    N        0.16693    0.39457    0.52300    1.000
    N1192    N        0.22268    0.42537    0.50923    1.000
    Si1193   Si       0.20499    0.34208    0.64775    1.000
    N1194    N        0.18099    0.34206    0.72634    1.000
    N1195    N        0.18361    0.26839    0.72135    1.000
    N1196    N        0.20195    0.26008    0.65140    1.000
    Si1197   Si       0.22319    0.34897    0.71873    1.000
    N1198    N        0.16622    0.33689    0.66455    1.000
    N1199    N        0.21735    0.38380    0.64231    1.000
    Si1200   Si       0.21230    0.40876    0.67713    1.000
    Si1201   Si       0.22074    0.48061    0.70628    1.000
    N1202    N        0.20166    0.46824    0.62154    1.000
    N1203    N        0.17146    0.40535    0.68980    1.000
    Si1204   Si       0.17541    0.49614    0.64650    1.000
    N1205    N        0.18366    0.46595    0.72156    1.000
    Si1206   Si       0.18592    0.29999    0.80826    1.000
    N1207    N        0.18196    0.33219    0.83905    1.000
    Si1208   Si       0.20653    0.36869    0.83306    1.000
    N1209    N        0.18095    0.26145    0.82918    1.000
    N1210    N        0.19333    0.39995    0.80487    1.000
    Si1211   Si       0.18222    0.47936    0.76377    1.000
    N1212    N        0.20035    0.45846    0.85010    1.000
    Si1213   Si       0.21326    0.43688    0.81322    1.000
    N1214    N        0.21838    0.46117    0.77764    1.000
    Si1215   Si       0.20377    0.50022    0.86309    1.000
    Si1216   Si       0.17558    0.31807    0.87979    1.000
    Si1217   Si       0.17472    0.34471    0.96967    1.000
    N1218    N        0.21220    0.32761    0.89864    1.000
    Si1219   Si       0.21237    0.37059    0.90910    1.000
    N1220    N        0.18169    0.37589    0.93921    1.000
    N1221    N        0.21561    0.34234    0.98502    1.000
    N1222    N        0.17135    0.27585    0.89335    1.000
    Si1223   Si       0.16764    0.27645    0.99186    1.000
    N1224    N        0.20106    0.38913    0.87196    1.000
    Si1225   Si       0.20153    0.43040    0.88265    1.000
    N1226    N        0.17351    0.49884    0.96010    1.000
    Si1227   Si       0.17065    0.47903    0.92091    1.000
    N1228    N        0.20948    0.49503    0.90746    1.000
    N1229    N        0.16746    0.43822    0.91046    1.000
    N1230    N        0.17573    0.60561    0.09568    1.000
    Si1231   Si       0.20051    0.62090    0.00924    1.000
    Si1232   Si       0.20279    0.57780    0.07637    1.000
    N1233    N        0.18214    0.54720    0.05150    1.000
    Si1234   Si       0.20462    0.51159    0.03545    1.000
    N1235    N        0.21901    0.60755    0.04556    1.000
    N1236    N        0.16617    0.59591    0.99822    1.000
    Si1237   Si       0.18669    0.64888    0.09937    1.000
    N1238    N        0.18634    0.66041    0.00808    1.000
    Si1239   Si       0.18548    0.74766    0.01100    1.000
    N1240    N        0.17204    0.68119    0.07539    1.000
    N1241    N        0.22002    0.72007    0.00856    1.000
    Si1242   Si       0.19192    0.56368    0.19378    1.000
    N1243    N        0.18986    0.59390    0.22612    1.000
    N1244    N        0.17038    0.53020    0.21026    1.000
    N1245    N        0.16803    0.57524    0.15913    1.000
    N1246    N        0.17900    0.65592    0.14284    1.000
    N1247    N        0.17229    0.70072    0.19867    1.000
    Si1248   Si       0.21471    0.70795    0.20369    1.000
    Si1249   Si       0.22377    0.66071    0.14729    1.000
    N1250    N        0.16544    0.72541    0.13269    1.000
    N1251    N        0.18747    0.55144    0.27799    1.000
    N1252    N        0.20858    0.60793    0.30125    1.000
    Si1253   Si       0.20990    0.57160    0.32298    1.000
    Si1254   Si       0.21143    0.58383    0.26207    1.000
    N1255    N        0.17657    0.55460    0.34213    1.000
    Si1256   Si       0.17105    0.52365    0.30984    1.000
    Si1257   Si       0.17557    0.63618    0.29667    1.000
    N1258    N        0.20232    0.67182    0.29186    1.000
    Si1259   Si       0.17909    0.70905    0.29560    1.000
    N1260    N        0.21221    0.73645    0.28688    1.000
    N1261    N        0.21511    0.66401    0.35438    1.000
    Si1262   Si       0.17181    0.67201    0.35767    1.000
    N1263    N        0.16389    0.71057    0.33712    1.000
    Si1264   Si       0.20079    0.59827    0.47528    1.000
    N1265    N        0.20587    0.55007    0.40432    1.000
    N1266    N        0.19249    0.60884    0.43469    1.000
    Si1267   Si       0.16588    0.56051    0.38657    1.000
    Si1268   Si       0.21816    0.66980    0.48994    1.000
    N1269    N        0.21685    0.70363    0.41263    1.000
    N1270    N        0.17180    0.75417    0.49608    1.000
    N1271    N        0.17763    0.67942    0.47140    1.000
    Si1272   Si       0.17969    0.69402    0.43010    1.000
    Si1273   Si       0.21023    0.55395    0.53414    1.000
    N1274    N        0.18771    0.53532    0.56699    1.000
    Si1275   Si       0.19037    0.55387    0.60613    1.000
    N1276    N        0.18154    0.59671    0.59695    1.000
    N1277    N        0.18421    0.57285    0.50404    1.000
    Si1278   Si       0.21492    0.61436    0.57373    1.000
    N1279    N        0.19421    0.64837    0.55726    1.000
    Si1280   Si       0.20279    0.69057    0.55873    1.000
    N1281    N        0.22210    0.69962    0.52176    1.000
    N1282    N        0.20918    0.50418    0.67192    1.000
    N1283    N        0.20689    0.58417    0.73714    1.000
    Si1284   Si       0.16738    0.60072    0.73394    1.000
    N1285    N        0.19848    0.72999    0.72792    1.000
    Si1286   Si       0.20220    0.74711    0.68941    1.000
    N1287    N        0.17431    0.72833    0.66280    1.000
    N1288    N        0.18244    0.66076    0.63264    1.000
    N1289    N        0.19928    0.57714    0.80738    1.000
    Si1290   Si       0.20382    0.56316    0.84954    1.000
    N1291    N        0.18161    0.52216    0.76302    1.000
    Si1292   Si       0.20847    0.55439    0.76957    1.000
    N1293    N        0.17388    0.53168    0.85685    1.000
    Si1294   Si       0.19114    0.63289    0.86261    1.000
    N1295    N        0.19033    0.65628    0.82490    1.000
    N1296    N        0.17665    0.71786    0.83809    1.000
    Si1297   Si       0.19215    0.75594    0.82313    1.000
    Si1298   Si       0.16603    0.72996    0.75654    1.000
    Si1299   Si       0.19301    0.58178    0.92577    1.000
    N1300    N        0.19893    0.59174    0.88160    1.000
    N1301    N        0.19737    0.62385    0.94061    1.000
    Si1302   Si       0.21530    0.51429    0.95118    1.000
    N1303    N        0.17581    0.69289    0.95032    1.000
    Si1304   Si       0.20414    0.68903    0.98076    1.000
    Si1305   Si       0.16869    0.65380    0.93064    1.000
    Si1306   Si       0.18291    0.70482    0.87972    1.000
    N1307    N        0.17334    0.66382    0.88897    1.000
    N1308    N        0.22416    0.71431    0.88998    1.000
    N1309    N        0.17774    0.75640    0.96995    1.000
    N1310    N        0.19194    0.84726    0.02120    1.000
    N1311    N        0.19791    0.82192    0.08757    1.000
    N1312    N        0.20078    0.78266    0.03186    1.000
    Si1313   Si       0.18613    0.85554    0.06502    1.000
    Si1314   Si       0.19491    0.78083    0.07300    1.000
    Si1315   Si       0.22292    0.81580    0.01815    1.000
    N1316    N        0.21865    0.88371    0.06978    1.000
    N1317    N        0.18293    0.96508    0.07123    1.000
    Si1318   Si       0.17572    0.95981    0.02530    1.000
    N1319    N        0.22084    0.94194    0.02578    1.000
    Si1320   Si       0.22400    0.97337    0.05841    1.000
    Si1321   Si       0.22314    0.90818    0.10453    1.000
    N1322    N        0.20845    0.00676    0.03147    1.000
    Si1323   Si       0.16419    0.99559    0.09741    1.000
    Si1324   Si       0.21973    0.80440    0.12273    1.000
    Si1325   Si       0.17188    0.82770    0.17581    1.000
    N1326    N        0.18537    0.79763    0.14854    1.000
    N1327    N        0.19341    0.82421    0.21273    1.000
    N1328    N        0.18793    0.92349    0.12259    1.000
    N1329    N        0.21332    0.91225    0.18522    1.000
    Si1330   Si       0.17244    0.91203    0.16375    1.000
    Si1331   Si       0.19754    0.93271    0.22092    1.000
    N1332    N        0.20163    0.97437    0.23507    1.000
    N1333    N        0.18704    0.80162    0.27262    1.000
    N1334    N        0.19059    0.78095    0.35686    1.000
    Si1335   Si       0.19540    0.82488    0.34827    1.000
    Si1336   Si       0.20651    0.76351    0.25443    1.000
    Si1337   Si       0.21549    0.82719    0.25082    1.000
    N1338    N        0.21151    0.96437    0.33429    1.000
    Si1339   Si       0.19450    0.92477    0.33351    1.000
    Si1340   Si       0.20160    0.99637    0.36063    1.000
    N1341    N        0.18447    0.90739    0.25324    1.000
    N1342    N        0.19040    0.91543    0.37644    1.000
    Si1343   Si       0.22219    0.76098    0.38455    1.000
    N1344    N        0.21719    0.76390    0.42780    1.000
    Si1345   Si       0.18072    0.76771    0.45176    1.000
    N1346    N        0.19365    0.84559    0.38622    1.000
    N1347    N        0.21452    0.80556    0.48800    1.000
    Si1348   Si       0.21603    0.88270    0.39188    1.000
    Si1349   Si       0.20565    0.00059    0.43661    1.000
    N1350    N        0.21820    0.89583    0.43195    1.000
    N1351    N        0.19054    0.98243    0.39944    1.000
    Si1352   Si       0.16714    0.94688    0.39702    1.000
    Si1353   Si       0.18074    0.90098    0.45393    1.000
    N1354    N        0.19703    0.99876    0.48021    1.000
    N1355    N        0.18498    0.90912    0.49678    1.000
    N1356    N        0.18919    0.82702    0.60440    1.000
    Si1357   Si       0.19192    0.78512    0.51870    1.000
    Si1358   Si       0.18721    0.78975    0.57958    1.000
    N1359    N        0.22257    0.78433    0.55392    1.000
    N1360    N        0.18670    0.88642    0.56445    1.000
    N1361    N        0.18193    0.97189    0.60079    1.000
    Si1362   Si       0.22279    0.99890    0.51482    1.000
    N1363    N        0.22018    0.96104    0.53780    1.000
    Si1364   Si       0.21941    0.96346    0.58187    1.000
    N1365    N        0.20371    0.79091    0.69250    1.000
    N1366    N        0.17998    0.86291    0.69717    1.000
    Si1367   Si       0.20298    0.83053    0.71404    1.000
    Si1368   Si       0.18922    0.88496    0.66109    1.000
    Si1369   Si       0.20940    0.00815    0.66975    1.000
    N1370    N        0.21084    0.95612    0.73285    1.000
    Si1371   Si       0.21511    0.94080    0.69331    1.000
    Si1372   Si       0.19630    0.99839    0.73896    1.000
    N1373    N        0.17151    0.98757    0.67553    1.000
    N1374    N        0.18741    0.92699    0.66395    1.000
    Si1375   Si       0.20874    0.85492    0.78907    1.000
    N1376    N        0.18410    0.78642    0.85179    1.000
    Si1377   Si       0.18048    0.82944    0.83812    1.000
    N1378    N        0.21837    0.85420    0.83409    1.000
    N1379    N        0.17296    0.83108    0.79582    1.000
    N1380    N        0.17085    0.76262    0.78503    1.000
    N1381    N        0.22204    0.83505    0.75336    1.000
    Si1382   Si       0.21134    0.88742    0.86366    1.000
    N1383    N        0.19177    0.89393    0.77526    1.000
    Si1384   Si       0.20815    0.93434    0.77023    1.000
    N1385    N        0.17633    0.90975    0.84996    1.000
    N1386    N        0.20250    0.97846    0.85902    1.000
    N1387    N        0.17702    0.95592    0.79387    1.000
    Si1388   Si       0.17491    0.95101    0.83750    1.000
    N1389    N        0.20935    0.87052    0.90218    1.000
    N1390    N        0.21254    0.77865    0.91444    1.000
    Si1391   Si       0.19365    0.79124    0.95296    1.000
    Si1392   Si       0.17638    0.77560    0.89284    1.000
    Si1393   Si       0.16441    0.85412    0.98941    1.000
    N1394    N        0.20134    0.00023    0.93853    1.000
    Si1395   Si       0.17672    0.96506    0.94017    1.000
    N1396    N        0.20051    0.93538    0.91684    1.000
    N1397    N        0.17305    0.88810    0.96356    1.000
    Si1398   Si       0.20460    0.89575    0.93447    1.000
    N1399    N        0.17969    0.94812    0.97873    1.000
    Si1400   Si       0.22390    0.94087    0.98177    1.000
    Si1401   Si       0.24337    0.10281    0.06786    1.000
    Si1402   Si       0.23793    0.03852    0.03448    1.000
    Si1403   Si       0.23437    0.03214    0.10525    1.000
    N1404    N        0.23542    0.12487    0.10346    1.000
    N1405    N        0.23445    0.06073    0.07224    1.000
    N1406    N        0.27878    0.03904    0.01927    1.000
    N1407    N        0.25615    0.25316    0.10785    1.000
    Si1408   Si       0.23067    0.21805    0.10377    1.000
    N1409    N        0.26242    0.19948    0.07890    1.000
    N1410    N        0.25919    0.02847    0.14166    1.000
    N1411    N        0.26925    0.07691    0.19425    1.000
    Si1412   Si       0.27346    0.12721    0.12356    1.000
    Si1413   Si       0.27726    0.08668    0.23323    1.000
    N1414    N        0.25844    0.21531    0.17536    1.000
    Si1415   Si       0.22806    0.24571    0.18516    1.000
    N1416    N        0.26812    0.14504    0.16359    1.000
    N1417    N        0.24944    0.17556    0.24070    1.000
    Si1418   Si       0.23964    0.17726    0.16880    1.000
    Si1419   Si       0.24200    0.08859    0.30880    1.000
    N1420    N        0.25247    0.10121    0.26599    1.000
    Si1421   Si       0.25899    0.03680    0.35640    1.000
    N1422    N        0.26092    0.04987    0.31664    1.000
    N1423    N        0.26043    0.11271    0.33952    1.000
    Si1424   Si       0.27833    0.02711    0.28473    1.000
    N1425    N        0.25161    0.21840    0.29283    1.000
    N1426    N        0.25991    0.18041    0.34850    1.000
    Si1427   Si       0.24896    0.14181    0.26831    1.000
    Si1428   Si       0.27757    0.19529    0.26829    1.000
    Si1429   Si       0.22671    0.18960    0.31881    1.000
    N1430    N        0.25578    0.10323    0.47467    1.000
    Si1431   Si       0.26161    0.10099    0.38267    1.000
    N1432    N        0.28036    0.06280    0.38243    1.000
    N1433    N        0.28117    0.12601    0.40933    1.000
    Si1434   Si       0.25800    0.13684    0.44496    1.000
    N1435    N        0.27965    0.16870    0.46404    1.000
    Si1436   Si       0.27324    0.20757    0.37906    1.000
    N1437    N        0.23869    0.22116    0.40160    1.000
    Si1438   Si       0.24251    0.23830    0.44127    1.000
    N1439    N        0.27545    0.05506    0.60454    1.000
    Si1440   Si       0.27558    0.02974    0.53052    1.000
    N1441    N        0.23298    0.03362    0.54120    1.000
    Si1442   Si       0.24379    0.13281    0.60025    1.000
    Si1443   Si       0.24462    0.20519    0.58548    1.000
    N1444    N        0.26972    0.15606    0.53317    1.000
    N1445    N        0.24361    0.24733    0.59654    1.000
    Si1446   Si       0.22608    0.16020    0.53645    1.000
    N1447    N        0.22758    0.17259    0.61191    1.000
    N1448    N        0.23556    0.10489    0.63113    1.000
    N1449    N        0.27500    0.06378    0.73714    1.000
    Si1450   Si       0.23594    0.12756    0.66787    1.000
    N1451    N        0.26546    0.04901    0.66813    1.000
    Si1452   Si       0.24189    0.06308    0.63327    1.000
    Si1453   Si       0.24270    0.05836    0.70735    1.000
    Si1454   Si       0.22629    0.19207    0.73808    1.000
    N1455    N        0.27403    0.14560    0.67390    1.000
    Si1456   Si       0.26815    0.08947    0.77215    1.000
    N1457    N        0.27590    0.12255    0.85690    1.000
    N1458    N        0.22501    0.08902    0.77832    1.000
    N1459    N        0.25768    0.00435    0.83553    1.000
    Si1460   Si       0.28108    0.16742    0.86170    1.000
    Si1461   Si       0.26719    0.24277    0.85283    1.000
    N1462    N        0.24498    0.22519    0.81965    1.000
    N1463    N        0.23726    0.15356    0.79783    1.000
    N1464    N        0.23676    0.17340    0.86284    1.000
    Si1465   Si       0.27809    0.16106    0.78476    1.000
    Si1466   Si       0.24010    0.25047    0.78391    1.000
    N1467    N        0.26903    0.18880    0.75077    1.000
    N1468    N        0.27913    0.05295    0.87392    1.000
    Si1469   Si       0.25254    0.06160    0.90812    1.000
    N1470    N        0.25203    0.10329    0.91958    1.000
    N1471    N        0.25776    0.04065    0.94534    1.000
    N1472    N        0.27634    0.10852    0.98362    1.000
    Si1473   Si       0.27688    0.06192    0.97704    1.000
    Si1474   Si       0.23955    0.12942    0.88576    1.000
    Si1475   Si       0.23369    0.11472    0.99645    1.000
    N1476    N        0.22912    0.06763    0.99944    1.000
    Si1477   Si       0.27059    0.13667    0.94560    1.000
    Si1478   Si       0.23322    0.24175    0.96185    1.000
    N1479    N        0.23982    0.21442    0.92938    1.000
    Si1480   Si       0.26261    0.18243    0.99342    1.000
    N1481    N        0.27308    0.15915    0.90626    1.000
    N1482    N        0.23610    0.15457    0.97192    1.000
    N1483    N        0.25651    0.22373    0.99466    1.000
    Si1484   Si       0.24671    0.34883    0.09045    1.000
    N1485    N        0.25686    0.29420    0.01575    1.000
    N1486    N        0.25914    0.38846    0.08068    1.000
    N1487    N        0.25119    0.39339    0.00694    1.000
    Si1488   Si       0.23059    0.39149    0.04664    1.000
    N1489    N        0.23852    0.50556    0.06182    1.000
    N1490    N        0.23438    0.32400    0.12529    1.000
    Si1491   Si       0.23843    0.32896    0.18728    1.000
    N1492    N        0.26161    0.36395    0.17560    1.000
    N1493    N        0.24959    0.32775    0.22963    1.000
    Si1494   Si       0.25891    0.28815    0.13382    1.000
    N1495    N        0.24409    0.28627    0.17626    1.000
    N1496    N        0.25203    0.41842    0.22545    1.000
    N1497    N        0.25219    0.49372    0.13667    1.000
    N1498    N        0.25251    0.43133    0.15537    1.000
    Si1499   Si       0.24733    0.40169    0.18616    1.000
    N1500    N        0.23588    0.35396    0.28767    1.000
    N1501    N        0.23026    0.28384    0.28694    1.000
    Si1502   Si       0.27800    0.36302    0.28866    1.000
    N1503    N        0.22934    0.36276    0.35720    1.000
    Si1504   Si       0.26701    0.25991    0.29035    1.000
    N1505    N        0.25565    0.44712    0.28599    1.000
    N1506    N        0.26138    0.48458    0.34390    1.000
    N1507    N        0.27812    0.41243    0.34741    1.000
    Si1508   Si       0.27848    0.44890    0.32388    1.000
    Si1509   Si       0.24050    0.40352    0.36782    1.000
    Si1510   Si       0.28186    0.42974    0.25322    1.000
    Si1511   Si       0.22549    0.47882    0.28153    1.000
    N1512    N        0.26734    0.29910    0.38708    1.000
    N1513    N        0.23404    0.34369    0.42471    1.000
    N1514    N        0.25207    0.31234    0.49060    1.000
    Si1515   Si       0.27622    0.33545    0.40747    1.000
    N1516    N        0.26589    0.38049    0.47168    1.000
    Si1517   Si       0.23544    0.38311    0.44144    1.000
    Si1518   Si       0.28266    0.34196    0.47863    1.000
    Si1519   Si       0.22568    0.28802    0.39054    1.000
    Si1520   Si       0.27482    0.49456    0.38286    1.000
    Si1521   Si       0.26375    0.44930    0.42203    1.000
    Si1522   Si       0.26335    0.41728    0.49456    1.000
    N1523    N        0.27271    0.44885    0.46313    1.000
    N1524    N        0.24618    0.41057    0.41077    1.000
    N1525    N        0.23941    0.48079    0.40278    1.000
    N1526    N        0.26090    0.30039    0.56250    1.000
    N1527    N        0.25890    0.36715    0.58785    1.000
    Si1528   Si       0.25742    0.28292    0.52150    1.000
    Si1529   Si       0.23658    0.33101    0.57708    1.000
    Si1530   Si       0.27751    0.26303    0.57553    1.000
    N1531    N        0.25542    0.46363    0.55535    1.000
    Si1532   Si       0.23687    0.40127    0.60638    1.000
    Si1533   Si       0.26520    0.50211    0.53583    1.000
    Si1534   Si       0.23267    0.27658    0.62684    1.000
    Si1535   Si       0.26308    0.30116    0.68280    1.000
    N1536    N        0.27087    0.28939    0.64285    1.000
    N1537    N        0.25370    0.26329    0.70176    1.000
    N1538    N        0.23068    0.32780    0.68124    1.000
    Si1539   Si       0.23921    0.46571    0.64375    1.000
    N1540    N        0.26532    0.49849    0.64579    1.000
    N1541    N        0.23471    0.38917    0.70891    1.000
    N1542    N        0.25316    0.49122    0.73143    1.000
    Si1543   Si       0.26348    0.42126    0.71062    1.000
    N1544    N        0.26156    0.43255    0.62201    1.000
    N1545    N        0.23469    0.44557    0.68339    1.000
    Si1546   Si       0.25454    0.32855    0.79302    1.000
    N1547    N        0.24617    0.35597    0.82530    1.000
    N1548    N        0.25220    0.33965    0.74997    1.000
    N1549    N        0.22636    0.29392    0.79190    1.000
    N1550    N        0.28229    0.25858    0.76890    1.000
    Si1551   Si       0.27812    0.46634    0.83429    1.000
    Si1552   Si       0.27370    0.39139    0.83343    1.000
    N1553    N        0.25523    0.42882    0.82473    1.000
    Si1554   Si       0.25935    0.46599    0.76613    1.000
    N1555    N        0.27673    0.48969    0.79703    1.000
    N1556    N        0.27986    0.43068    0.74822    1.000
    N1557    N        0.24263    0.28233    0.94644    1.000
    Si1558   Si       0.24874    0.36552    0.97374    1.000
    Si1559   Si       0.24292    0.29643    0.90415    1.000
    N1560    N        0.25068    0.37164    0.92971    1.000
    Si1561   Si       0.27008    0.29947    0.97468    1.000
    N1562    N        0.23623    0.26311    0.87499    1.000
    N1563    N        0.28122    0.31752    0.89326    1.000
    N1564    N        0.23539    0.43552    0.90874    1.000
    N1565    N        0.27348    0.48039    0.87693    1.000
    N1566    N        0.25357    0.49425    0.94993    1.000
    Si1567   Si       0.24800    0.47672    0.91094    1.000
    Si1568   Si       0.28312    0.48746    0.98113    1.000
    Si1569   Si       0.26190    0.60847    0.03315    1.000
    Si1570   Si       0.27090    0.52756    0.04424    1.000
    Si1571   Si       0.24829    0.51928    0.10126    1.000
    N1572    N        0.27001    0.56507    0.02341    1.000
    Si1573   Si       0.27114    0.57790    0.09817    1.000
    N1574    N        0.23238    0.55952    0.10144    1.000
    N1575    N        0.22150    0.52752    0.99676    1.000
    N1576    N        0.25914    0.66711    0.03429    1.000
    Si1577   Si       0.25816    0.71062    0.02605    1.000
    Si1578   Si       0.26234    0.65606    0.07609    1.000
    N1579    N        0.22936    0.65543    0.10409    1.000
    Si1580   Si       0.26912    0.75074    0.08911    1.000
    Si1581   Si       0.24312    0.51268    0.17726    1.000
    Si1582   Si       0.25559    0.59126    0.17029    1.000
    N1583    N        0.23171    0.55535    0.17946    1.000
    N1584    N        0.27482    0.51073    0.20917    1.000
    Si1585   Si       0.27421    0.53814    0.24555    1.000
    N1586    N        0.24711    0.63426    0.17169    1.000
    N1587    N        0.23210    0.69851    0.16527    1.000
    N1588    N        0.22473    0.74686    0.21722    1.000
    N1589    N        0.24105    0.68281    0.22942    1.000
    Si1590   Si       0.26822    0.66010    0.20437    1.000
    Si1591   Si       0.26930    0.71969    0.16064    1.000
    N1592    N        0.24609    0.55443    0.33645    1.000
    Si1593   Si       0.26639    0.52110    0.31819    1.000
    Si1594   Si       0.27266    0.56779    0.36751    1.000
    N1595    N        0.25370    0.57799    0.25230    1.000
    N1596    N        0.25250    0.51490    0.27614    1.000
    Si1597   Si       0.27693    0.61448    0.25749    1.000
    N1598    N        0.27131    0.63306    0.34237    1.000
    Si1599   Si       0.23445    0.64137    0.32038    1.000
    N1600    N        0.25794    0.64510    0.28188    1.000
    N1601    N        0.27072    0.71060    0.29311    1.000
    Si1602   Si       0.24532    0.73851    0.31614    1.000
    Si1603   Si       0.24069    0.68464    0.27142    1.000
    N1604    N        0.23623    0.73040    0.35707    1.000
    N1605    N        0.23794    0.57320    0.46268    1.000
    N1606    N        0.25466    0.60050    0.39401    1.000
    Si1607   Si       0.24056    0.52804    0.46930    1.000
    Si1608   Si       0.26425    0.60271    0.48585    1.000
    Si1609   Si       0.22461    0.58355    0.42043    1.000
    N1610    N        0.28162    0.51683    0.45936    1.000
    N1611    N        0.22652    0.62920    0.49224    1.000
    N1612    N        0.28047    0.53570    0.39327    1.000
    N1613    N        0.24940    0.74745    0.48233    1.000
    Si1614   Si       0.28074    0.63460    0.38429    1.000
    N1615    N        0.24939    0.68771    0.46423    1.000
    Si1616   Si       0.24066    0.72717    0.44352    1.000
    N1617    N        0.27689    0.67808    0.39217    1.000
    Si1618   Si       0.23805    0.69132    0.37822    1.000
    N1619    N        0.27891    0.74011    0.42139    1.000
    N1620    N        0.23692    0.58121    0.55491    1.000
    N1621    N        0.23629    0.52447    0.51588    1.000
    N1622    N        0.24114    0.62791    0.60849    1.000
    Si1623   Si       0.27788    0.56792    0.55465    1.000
    Si1624   Si       0.25954    0.71718    0.51161    1.000
    Si1625   Si       0.27141    0.71248    0.58480    1.000
    N1626    N        0.27145    0.73757    0.54951    1.000
    N1627    N        0.23128    0.69388    0.59049    1.000
    N1628    N        0.27538    0.74008    0.61574    1.000
    Si1629   Si       0.24698    0.59688    0.63785    1.000
    N1630    N        0.25540    0.54856    0.69908    1.000
    Si1631   Si       0.24340    0.58651    0.71320    1.000
    Si1632   Si       0.24072    0.53246    0.65826    1.000
    N1633    N        0.23998    0.61447    0.67770    1.000
    N1634    N        0.27298    0.61429    0.73383    1.000
    N1635    N        0.22627    0.55951    0.62839    1.000
    N1636    N        0.24250    0.67142    0.72145    1.000
    Si1637   Si       0.22509    0.66625    0.62303    1.000
    Si1638   Si       0.25954    0.65105    0.68702    1.000
    Si1639   Si       0.26878    0.71971    0.65496    1.000
    N1640    N        0.25154    0.68105    0.65436    1.000
    Si1641   Si       0.23412    0.70976    0.74006    1.000
    N1642    N        0.24539    0.74731    0.67686    1.000
    N1643    N        0.25098    0.55483    0.78056    1.000
    Si1644   Si       0.24330    0.59202    0.80500    1.000
    N1645    N        0.25636    0.58755    0.84490    1.000
    Si1646   Si       0.27356    0.54725    0.85239    1.000
    N1647    N        0.23338    0.53008    0.85158    1.000
    N1648    N        0.24649    0.63088    0.79309    1.000
    Si1649   Si       0.25918    0.65034    0.75657    1.000
    Si1650   Si       0.26300    0.71777    0.79636    1.000
    N1651    N        0.26289    0.69242    0.83487    1.000
    Si1652   Si       0.23274    0.66488    0.81796    1.000
    N1653    N        0.26222    0.73821    0.75193    1.000
    N1654    N        0.23618    0.64634    0.86530    1.000
    N1655    N        0.22772    0.69265    0.78145    1.000
    N1656    N        0.23432    0.75566    0.81445    1.000
    Si1657   Si       0.26469    0.61584    0.87616    1.000
    N1658    N        0.23782    0.60515    0.98600    1.000
    Si1659   Si       0.24505    0.56350    0.98530    1.000
    Si1660   Si       0.26713    0.57019    0.92560    1.000
    N1661    N        0.26453    0.61479    0.91999    1.000
    N1662    N        0.22631    0.55772    0.93864    1.000
    Si1663   Si       0.23836    0.63094    0.95121    1.000
    N1664    N        0.23888    0.67287    0.96137    1.000
    Si1665   Si       0.25291    0.68582    0.87696    1.000
    N1666    N        0.26479    0.74133    0.94457    1.000
    N1667    N        0.27850    0.75588    0.88415    1.000
    Si1668   Si       0.24184    0.74897    0.90647    1.000
    Si1669   Si       0.27495    0.69752    0.95169    1.000
    N1670    N        0.28446    0.68866    0.90580    1.000
    N1671    N        0.26122    0.82345    0.03592    1.000
    N1672    N        0.22869    0.76651    0.09800    1.000
    Si1673   Si       0.24264    0.90940    0.04596    1.000
    N1674    N        0.24616    0.93692    0.08094    1.000
    Si1675   Si       0.26521    0.96810    0.10665    1.000
    N1676    N        0.27357    0.89284    0.02161    1.000
    N1677    N        0.24878    0.99984    0.08142    1.000
    N1678    N        0.28034    0.81644    0.20749    1.000
    N1679    N        0.25524    0.82213    0.13615    1.000
    Si1680   Si       0.25933    0.77538    0.21065    1.000
    Si1681   Si       0.27331    0.85989    0.13193    1.000
    N1682    N        0.26624    0.76225    0.16864    1.000
    Si1683   Si       0.27703    0.84492    0.24203    1.000
    Si1684   Si       0.24849    0.92582    0.16503    1.000
    N1685    N        0.24443    0.96270    0.14514    1.000
    N1686    N        0.26780    0.98939    0.20828    1.000
    N1687    N        0.24996    0.89507    0.13517    1.000
    Si1688   Si       0.24552    0.99991    0.17121    1.000
    Si1689   Si       0.24492    0.97285    0.24428    1.000
    N1690    N        0.24610    0.92929    0.24734    1.000
    Si1691   Si       0.26648    0.80298    0.34221    1.000
    N1692    N        0.26599    0.77522    0.31098    1.000
    N1693    N        0.23477    0.83291    0.33091    1.000
    Si1694   Si       0.25377    0.87284    0.33179    1.000
    N1695    N        0.23966    0.86161    0.25687    1.000
    N1696    N        0.24157    0.79293    0.25125    1.000
    Si1697   Si       0.25201    0.97057    0.32093    1.000
    N1698    N        0.25498    0.99246    0.28221    1.000
    N1699    N        0.26451    0.99137    0.35735    1.000
    Si1700   Si       0.22474    0.89993    0.27011    1.000
    N1701    N        0.22459    0.89980    0.31367    1.000
    N1702    N        0.25841    0.78743    0.38098    1.000
    Si1703   Si       0.25410    0.79007    0.47894    1.000
    N1704    N        0.27439    0.81186    0.44751    1.000
    N1705    N        0.27869    0.88015    0.46770    1.000
    Si1706   Si       0.28445    0.78189    0.41438    1.000
    Si1707   Si       0.27435    0.97595    0.39757    1.000
    N1708    N        0.25556    0.88468    0.37302    1.000
    N1709    N        0.27693    0.93381    0.41339    1.000
    Si1710   Si       0.27302    0.97874    0.46498    1.000
    Si1711   Si       0.25595    0.91230    0.44721    1.000
    N1712    N        0.24781    0.94095    0.47742    1.000
    N1713    N        0.24819    0.99225    0.43054    1.000
    N1714    N        0.24776    0.85041    0.58316    1.000
    Si1715   Si       0.26716    0.78054    0.55072    1.000
    Si1716   Si       0.22840    0.83484    0.62030    1.000
    N1717    N        0.28231    0.79747    0.51310    1.000
    Si1718   Si       0.23106    0.88756    0.56908    1.000
    N1719    N        0.24689    0.89487    0.52856    1.000
    N1720    N        0.25708    0.98187    0.59734    1.000
    N1721    N        0.23769    0.92346    0.59101    1.000
    Si1722   Si       0.27603    0.94324    0.60058    1.000
    N1723    N        0.26378    0.00370    0.49752    1.000
    Si1724   Si       0.22299    0.92683    0.51013    1.000
    N1725    N        0.25147    0.80296    0.63882    1.000
    N1726    N        0.24503    0.83623    0.69667    1.000
    Si1727   Si       0.25480    0.87393    0.67721    1.000
    Si1728   Si       0.26347    0.82497    0.73754    1.000
    Si1729   Si       0.24895    0.79097    0.68274    1.000
    N1730    N        0.22701    0.87035    0.64468    1.000
    N1731    N        0.24866    0.91441    0.69233    1.000
    N1732    N        0.23809    0.97526    0.67206    1.000
    Si1733   Si       0.27191    0.94998    0.67591    1.000
    Si1734   Si       0.26309    0.85116    0.83765    1.000
    Si1735   Si       0.26810    0.78207    0.81350    1.000
    N1736    N        0.27169    0.81002    0.84416    1.000
    N1737    N        0.27512    0.87551    0.80368    1.000
    N1738    N        0.27766    0.80630    0.77743    1.000
    Si1739   Si       0.28002    0.91864    0.79832    1.000
    N1740    N        0.24537    0.94331    0.79181    1.000
    Si1741   Si       0.25043    0.99104    0.79523    1.000
    N1742    N        0.24291    0.91892    0.86757    1.000
    Si1743   Si       0.26166    0.78775    0.95617    1.000
    N1744    N        0.22786    0.80666    0.97522    1.000
    N1745    N        0.25413    0.96991    0.96993    1.000
    Si1746   Si       0.22614    0.95488    0.88739    1.000
    N1747    N        0.25849    0.97846    0.90402    1.000
    Si1748   Si       0.27362    0.88597    0.97714    1.000
    Si1749   Si       0.24557    0.00001    0.94016    1.000
    N1750    N        0.23643    0.90234    0.96355    1.000
    Si1751   Si       0.30358    0.06163    0.04569    1.000
    N1752    N        0.32278    0.04161    0.07919    1.000
    Si1753   Si       0.30348    0.12207    0.01645    1.000
    Si1754   Si       0.32585    0.06743    0.11500    1.000
    N1755    N        0.33907    0.07862    0.02460    1.000
    N1756    N        0.28399    0.09986    0.04908    1.000
    N1757    N        0.32454    0.22220    0.00460    1.000
    Si1758   Si       0.29294    0.17210    0.06612    1.000
    N1759    N        0.30369    0.14698    0.09922    1.000
    N1760    N        0.32600    0.20258    0.06891    1.000
    Si1761   Si       0.29310    0.23182    0.08991    1.000
    Si1762   Si       0.28771    0.24875    0.01109    1.000
    N1763    N        0.34015    0.14157    0.00460    1.000
    N1764    N        0.28349    0.16174    0.02559    1.000
    N1765    N        0.28729    0.08552    0.12555    1.000
    N1766    N        0.30672    0.12287    0.22751    1.000
    N1767    N        0.32508    0.04690    0.15339    1.000
    N1768    N        0.33698    0.12432    0.15685    1.000
    Si1769   Si       0.28454    0.05807    0.15981    1.000
    Si1770   Si       0.30592    0.13959    0.18615    1.000
    N1771    N        0.32043    0.17926    0.18997    1.000
    Si1772   Si       0.32033    0.24894    0.23446    1.000
    N1773    N        0.31592    0.21866    0.12777    1.000
    N1774    N        0.31341    0.25154    0.19182    1.000
    Si1775   Si       0.30119    0.21568    0.16955    1.000
    N1776    N        0.28989    0.04833    0.25027    1.000
    Si1777   Si       0.32791    0.02948    0.24989    1.000
    Si1778   Si       0.32381    0.13818    0.26455    1.000
    N1779    N        0.31956    0.14816    0.35661    1.000
    N1780    N        0.28713    0.15593    0.28746    1.000
    N1781    N        0.31617    0.21580    0.26519    1.000
    Si1782   Si       0.28259    0.14814    0.33169    1.000
    Si1783   Si       0.31110    0.04710    0.40713    1.000
    Si1784   Si       0.29512    0.08632    0.48103    1.000
    N1785    N        0.31128    0.06012    0.45059    1.000
    N1786    N        0.31919    0.12066    0.48955    1.000
    Si1787   Si       0.33284    0.22670    0.40121    1.000
    N1788    N        0.30043    0.23926    0.37124    1.000
    Si1789   Si       0.31594    0.14972    0.40067    1.000
    N1790    N        0.30406    0.19102    0.40737    1.000
    Si1791   Si       0.30558    0.20237    0.45232    1.000
    N1792    N        0.28531    0.24161    0.44969    1.000
    N1793    N        0.31711    0.20227    0.49632    1.000
    Si1794   Si       0.30746    0.08727    0.60522    1.000
    N1795    N        0.29817    0.06370    0.51733    1.000
    Si1796   Si       0.33135    0.04981    0.54349    1.000
    N1797    N        0.30982    0.01254    0.55720    1.000
    N1798    N        0.28637    0.12335    0.59353    1.000
    N1799    N        0.34013    0.07528    0.57723    1.000
    Si1800   Si       0.28482    0.01371    0.59794    1.000
    N1801    N        0.33023    0.15879    0.54548    1.000
    Si1802   Si       0.32194    0.24351    0.51321    1.000
    Si1803   Si       0.29537    0.15672    0.56845    1.000
    Si1804   Si       0.31739    0.21227    0.61208    1.000
    Si1805   Si       0.30416    0.16128    0.50541    1.000
    N1806    N        0.31210    0.25165    0.60009    1.000
    N1807    N        0.28651    0.25141    0.53415    1.000
    N1808    N        0.28615    0.19275    0.58950    1.000
    Si1809   Si       0.31789    0.06187    0.72423    1.000
    Si1810   Si       0.30719    0.03996    0.65831    1.000
    N1811    N        0.32628    0.02959    0.69556    1.000
    N1812    N        0.32543    0.07790    0.64453    1.000
    N1813    N        0.33451    0.10004    0.71153    1.000
    N1814    N        0.31478    0.00852    0.62855    1.000
    Si1815   Si       0.33046    0.13109    0.74176    1.000
    N1816    N        0.32219    0.16694    0.71604    1.000
    N1817    N        0.31460    0.20521    0.65613    1.000
    N1818    N        0.32187    0.23727    0.71883    1.000
    Si1819   Si       0.30815    0.19938    0.73789    1.000
    Si1820   Si       0.33822    0.23562    0.67771    1.000
    Si1821   Si       0.31238    0.16473    0.67409    1.000
    Si1822   Si       0.30712    0.03654    0.78980    1.000
    N1823    N        0.32590    0.02597    0.82705    1.000
    Si1824   Si       0.29616    0.08434    0.85017    1.000
    Si1825   Si       0.29336    0.01633    0.85558    1.000
    N1826    N        0.29373    0.12626    0.76424    1.000
    N1827    N        0.33593    0.05610    0.76366    1.000
    N1828    N        0.33883    0.08231    0.86054    1.000
    N1829    N        0.28329    0.07077    0.80813    1.000
    N1830    N        0.30056    0.17225    0.82094    1.000
    Si1831   Si       0.33715    0.19535    0.81357    1.000
    N1832    N        0.33366    0.20654    0.77163    1.000
    N1833    N        0.31516    0.05959    0.96038    1.000
    Si1834   Si       0.32784    0.18152    0.98979    1.000
    Si1835   Si       0.33480    0.23938    0.96447    1.000
    N1836    N        0.28975    0.21269    0.87411    1.000
    Si1837   Si       0.33310    0.22739    0.87925    1.000
    N1838    N        0.31884    0.22721    0.92511    1.000
    N1839    N        0.29284    0.17743    0.96209    1.000
    Si1840   Si       0.28247    0.19940    0.92265    1.000
    Si1841   Si       0.31246    0.32448    0.11194    1.000
    Si1842   Si       0.29161    0.30242    0.04511    1.000
    N1843    N        0.31890    0.33330    0.02761    1.000
    N1844    N        0.30132    0.26161    0.05250    1.000
    N1845    N        0.28035    0.32306    0.08245    1.000
    N1846    N        0.33188    0.38384    0.08448    1.000
    Si1847   Si       0.29028    0.41224    0.00212    1.000
    Si1848   Si       0.29639    0.41057    0.08086    1.000
    Si1849   Si       0.29763    0.46821    0.05712    1.000
    N1850    N        0.29660    0.42837    0.04120    1.000
    N1851    N        0.29082    0.44830    0.09877    1.000
    N1852    N        0.33330    0.48947    0.06863    1.000
    N1853    N        0.29037    0.49675    0.02141    1.000
    N1854    N        0.33030    0.39222    0.99412    1.000
    N1855    N        0.31919    0.35621    0.14044    1.000
    Si1856   Si       0.30679    0.35838    0.18031    1.000
    N1857    N        0.31225    0.32052    0.19970    1.000
    N1858    N        0.30093    0.29408    0.13907    1.000
    Si1859   Si       0.32707    0.28740    0.17472    1.000
    Si1860   Si       0.28769    0.30969    0.23462    1.000
    Si1861   Si       0.32587    0.37019    0.24483    1.000
    N1862    N        0.31243    0.45675    0.23784    1.000
    Si1863   Si       0.30879    0.48248    0.20138    1.000
    N1864    N        0.32344    0.38890    0.20508    1.000
    N1865    N        0.31287    0.45259    0.16886    1.000
    Si1866   Si       0.28256    0.45820    0.13864    1.000
    Si1867   Si       0.31354    0.31563    0.30838    1.000
    N1868    N        0.30557    0.33417    0.26705    1.000
    Si1869   Si       0.29846    0.28162    0.36162    1.000
    N1870    N        0.29495    0.34941    0.32747    1.000
    N1871    N        0.28859    0.28312    0.31992    1.000
    N1872    N        0.33812    0.29599    0.36645    1.000
    Si1873   Si       0.30910    0.37927    0.35407    1.000
    N1874    N        0.28585    0.27035    0.25122    1.000
    Si1875   Si       0.33436    0.41831    0.29847    1.000
    N1876    N        0.30271    0.39607    0.27311    1.000
    N1877    N        0.32069    0.45524    0.31547    1.000
    Si1878   Si       0.33853    0.49302    0.31301    1.000
    N1879    N        0.32564    0.28216    0.49090    1.000
    Si1880   Si       0.31030    0.27801    0.45086    1.000
    N1881    N        0.31086    0.36154    0.39398    1.000
    N1882    N        0.29550    0.31743    0.44170    1.000
    N1883    N        0.34271    0.26568    0.42240    1.000
    Si1884   Si       0.30107    0.48065    0.47335    1.000
    N1885    N        0.30147    0.46506    0.40406    1.000
    Si1886   Si       0.34351    0.47431    0.41449    1.000
    N1887    N        0.31781    0.32102    0.59921    1.000
    Si1888   Si       0.30336    0.36110    0.58900    1.000
    N1889    N        0.31457    0.34930    0.50562    1.000
    N1890    N        0.33639    0.37755    0.56293    1.000
    Si1891   Si       0.32591    0.38808    0.52259    1.000
    N1892    N        0.29936    0.48400    0.51667    1.000
    Si1893   Si       0.29803    0.45355    0.54841    1.000
    N1894    N        0.32649    0.46620    0.57846    1.000
    N1895    N        0.29448    0.41661    0.52627    1.000
    Si1896   Si       0.31154    0.28516    0.62775    1.000
    N1897    N        0.29629    0.30466    0.71217    1.000
    N1898    N        0.31744    0.37149    0.73869    1.000
    Si1899   Si       0.33399    0.30848    0.69269    1.000
    N1900    N        0.33189    0.34356    0.67061    1.000
    Si1901   Si       0.28713    0.26463    0.72758    1.000
    N1902    N        0.33582    0.27594    0.66175    1.000
    Si1903   Si       0.29457    0.33513    0.74555    1.000
    N1904    N        0.31391    0.38838    0.62283    1.000
    Si1905   Si       0.32398    0.38083    0.69725    1.000
    Si1906   Si       0.30906    0.49694    0.65245    1.000
    N1907    N        0.32578    0.45818    0.64410    1.000
    Si1908   Si       0.29849    0.42383    0.64258    1.000
    N1909    N        0.29490    0.40921    0.68343    1.000
    N1910    N        0.31407    0.50454    0.69446    1.000
    N1911    N        0.30017    0.31990    0.78662    1.000
    Si1912   Si       0.32860    0.34645    0.80760    1.000
    Si1913   Si       0.30753    0.27851    0.79645    1.000
    N1914    N        0.29296    0.27361    0.83780    1.000
    N1915    N        0.33684    0.32683    0.84490    1.000
    Si1916   Si       0.31155    0.29941    0.86537    1.000
    N1917    N        0.30483    0.38254    0.80515    1.000
    N1918    N        0.31771    0.45325    0.84203    1.000
    Si1919   Si       0.31381    0.40377    0.76629    1.000
    N1920    N        0.30129    0.27100    0.97629    1.000
    N1921    N        0.32682    0.36779    0.91770    1.000
    Si1922   Si       0.32379    0.35032    0.98714    1.000
    N1923    N        0.33789    0.27137    0.88637    1.000
    N1924    N        0.28522    0.33960    0.97267    1.000
    Si1925   Si       0.28462    0.35738    0.90817    1.000
    N1926    N        0.32547    0.44385    0.91034    1.000
    Si1927   Si       0.31868    0.47298    0.88034    1.000
    Si1928   Si       0.32652    0.40280    0.89079    1.000
    Si1929   Si       0.32764    0.45511    0.95083    1.000
    N1930    N        0.28887    0.38818    0.87429    1.000
    N1931    N        0.32051    0.49777    0.95628    1.000
    N1932    N        0.29112    0.44508    0.97396    1.000
    Si1933   Si       0.32859    0.52936    0.08709    1.000
    N1934    N        0.29866    0.61843    0.01224    1.000
    Si1935   Si       0.32129    0.62898    0.08630    1.000
    N1936    N        0.28765    0.53846    0.08343    1.000
    Si1937   Si       0.30510    0.57880    0.00036    1.000
    N1938    N        0.27905    0.61319    0.07446    1.000
    N1939    N        0.34039    0.60333    0.11502    1.000
    Si1940   Si       0.32396    0.71622    0.03099    1.000
    N1941    N        0.30178    0.66756    0.08893    1.000
    Si1942   Si       0.32006    0.70467    0.10189    1.000
    Si1943   Si       0.29315    0.66028    0.00223    1.000
    N1944    N        0.33053    0.67379    0.01969    1.000
    N1945    N        0.28482    0.72331    0.12020    1.000
    N1946    N        0.28350    0.73061    0.05352    1.000
    Si1947   Si       0.32503    0.57611    0.14485    1.000
    Si1948   Si       0.33333    0.62213    0.20775    1.000
    N1949    N        0.33029    0.58431    0.18556    1.000
    N1950    N        0.33498    0.53680    0.12884    1.000
    N1951    N        0.31543    0.55406    0.24495    1.000
    N1952    N        0.29197    0.62957    0.21967    1.000
    N1953    N        0.28220    0.58269    0.13925    1.000
    N1954    N        0.29176    0.75531    0.23478    1.000
    Si1955   Si       0.31528    0.72223    0.22199    1.000
    N1956    N        0.29413    0.69652    0.18950    1.000
    Si1957   Si       0.33463    0.69230    0.17297    1.000
    N1958    N        0.30755    0.57971    0.34707    1.000
    N1959    N        0.30906    0.60729    0.28591    1.000
    Si1960   Si       0.30843    0.61758    0.32673    1.000
    N1961    N        0.30917    0.52392    0.31502    1.000
    Si1962   Si       0.33863    0.58365    0.26639    1.000
    Si1963   Si       0.31513    0.72025    0.29080    1.000
    N1964    N        0.33362    0.70141    0.25496    1.000
    N1965    N        0.33699    0.70396    0.32345    1.000
    Si1966   Si       0.32029    0.61360    0.44386    1.000
    N1967    N        0.31852    0.57197    0.45072    1.000
    Si1968   Si       0.30825    0.53526    0.42891    1.000
    N1969    N        0.31852    0.62275    0.40277    1.000
    Si1970   Si       0.32706    0.56406    0.49169    1.000
    N1971    N        0.28682    0.63111    0.46495    1.000
    Si1972   Si       0.30313    0.70667    0.40901    1.000
    N1973    N        0.33568    0.72723    0.39286    1.000
    N1974    N        0.31889    0.68800    0.44642    1.000
    Si1975   Si       0.28788    0.67213    0.47114    1.000
    N1976    N        0.30880    0.58521    0.58029    1.000
    Si1977   Si       0.33927    0.60155    0.55327    1.000
    N1978    N        0.28865    0.57767    0.51114    1.000
    N1979    N        0.28594    0.52671    0.56345    1.000
    Si1980   Si       0.32332    0.51113    0.58093    1.000
    N1981    N        0.32267    0.52618    0.62182    1.000
    Si1982   Si       0.31853    0.67774    0.54307    1.000
    N1983    N        0.30216    0.68200    0.58440    1.000
    N1984    N        0.29421    0.68982    0.51102    1.000
    N1985    N        0.33387    0.63957    0.53241    1.000
    Si1986   Si       0.31897    0.56857    0.62001    1.000
    Si1987   Si       0.31493    0.62234    0.72135    1.000
    N1988    N        0.28589    0.58191    0.64398    1.000
    Si1989   Si       0.28253    0.52185    0.72036    1.000
    N1990    N        0.34039    0.58782    0.71339    1.000
    N1991    N        0.30762    0.71779    0.67282    1.000
    Si1992   Si       0.33934    0.74350    0.65686    1.000
    Si1993   Si       0.32556    0.68935    0.70052    1.000
    N1994    N        0.30297    0.65442    0.69338    1.000
    N1995    N        0.33396    0.71177    0.73751    1.000
    N1996    N        0.30542    0.54453    0.82169    1.000
    N1997    N        0.30821    0.53636    0.75094    1.000
    Si1998   Si       0.28634    0.53034    0.78664    1.000
    Si1999   Si       0.34089    0.62156    0.85111    1.000
    N2000    N        0.33943    0.63369    0.80769    1.000
    Si2001   Si       0.33351    0.73634    0.82524    1.000
    Si2002   Si       0.33041    0.68151    0.77116    1.000
    N2003    N        0.29618    0.74914    0.80399    1.000
    N2004    N        0.28871    0.67812    0.77388    1.000
    N2005    N        0.33757    0.72604    0.86769    1.000
    N2006    N        0.28995    0.55678    0.88935    1.000
    Si2007   Si       0.33237    0.55006    0.88377    1.000
    N2008    N        0.28736    0.55967    0.96344    1.000
    Si2009   Si       0.32692    0.53946    0.95696    1.000
    Si2010   Si       0.30524    0.65037    0.91435    1.000
    Si2011   Si       0.30844    0.72519    0.89914    1.000
    N2012    N        0.30477    0.63245    0.87448    1.000
    N2013    N        0.28649    0.70806    0.99320    1.000
    Si2014   Si       0.30463    0.74515    0.97337    1.000
    N2015    N        0.32842    0.72889    0.93796    1.000
    N2016    N        0.30339    0.65852    0.95862    1.000
    N2017    N        0.32595    0.82163    0.04271    1.000
    N2018    N        0.29305    0.86174    0.09307    1.000
    Si2019   Si       0.29631    0.81914    0.00903    1.000
    Si2020   Si       0.29142    0.82478    0.07122    1.000
    N2021    N        0.29132    0.78814    0.09560    1.000
    Si2022   Si       0.32684    0.88996    0.09809    1.000
    N2023    N        0.30534    0.96380    0.09662    1.000
    N2024    N        0.29996    0.95389    0.02089    1.000
    Si2025   Si       0.31315    0.91196    0.01535    1.000
    Si2026   Si       0.32153    0.95739    0.05749    1.000
    N2027    N        0.32917    0.91371    0.06029    1.000
    N2028    N        0.30812    0.86304    0.15908    1.000
    Si2029   Si       0.31410    0.82792    0.18366    1.000
    N2030    N        0.32495    0.79161    0.16018    1.000
    Si2031   Si       0.28639    0.78761    0.13901    1.000
    N2032    N        0.30172    0.87799    0.23099    1.000
    Si2033   Si       0.33598    0.96116    0.12552    1.000
    N2034    N        0.28630    0.92748    0.18873    1.000
    Si2035   Si       0.28546    0.91777    0.23140    1.000
    Si2036   Si       0.31937    0.90381    0.17265    1.000
    N2037    N        0.32523    0.97582    0.16424    1.000
    Si2038   Si       0.30803    0.97215    0.20397    1.000
    N2039    N        0.33525    0.91727    0.13044    1.000
    N2040    N        0.30783    0.95193    0.24403    1.000
    N2041    N        0.33708    0.00719    0.21374    1.000
    N2042    N        0.30390    0.82319    0.34752    1.000
    Si2043   Si       0.31484    0.83918    0.30757    1.000
    N2044    N        0.29668    0.82257    0.27347    1.000
    N2045    N        0.29318    0.87561    0.31255    1.000
    Si2046   Si       0.28724    0.78087    0.27067    1.000
    N2047    N        0.32581    0.76326    0.28798    1.000
    Si2048   Si       0.31425    0.91253    0.32009    1.000
    Si2049   Si       0.31363    0.96438    0.28544    1.000
    N2050    N        0.32342    0.91583    0.36259    1.000
    N2051    N        0.28395    0.94218    0.30947    1.000
    N2052    N        0.32098    0.00741    0.28746    1.000
    Si2053   Si       0.32818    0.82843    0.38445    1.000
    N2054    N        0.32910    0.84401    0.47711    1.000
    N2055    N        0.31145    0.86138    0.40725    1.000
    Si2056   Si       0.29792    0.84809    0.44606    1.000
    N2057    N        0.32635    0.79373    0.40905    1.000
    N2058    N        0.30672    0.00515    0.41111    1.000
    Si2059   Si       0.29341    0.89983    0.38956    1.000
    Si2060   Si       0.33721    0.98638    0.43518    1.000
    N2061    N        0.31549    0.96941    0.46808    1.000
    Si2062   Si       0.33788    0.94303    0.49371    1.000
    N2063    N        0.30704    0.85532    0.53843    1.000
    Si2064   Si       0.31866    0.81948    0.51475    1.000
    Si2065   Si       0.28936    0.84414    0.57701    1.000
    N2066    N        0.29156    0.80047    0.58103    1.000
    N2067    N        0.30701    0.88020    0.59523    1.000
    Si2068   Si       0.28430    0.78185    0.62133    1.000
    Si2069   Si       0.33581    0.97371    0.56058    1.000
    N2070    N        0.31340    0.91318    0.51588    1.000
    N2071    N        0.30799    0.94237    0.57216    1.000
    Si2072   Si       0.32086    0.89890    0.55792    1.000
    Si2073   Si       0.28413    0.88050    0.50969    1.000
    N2074    N        0.29624    0.87332    0.66796    1.000
    Si2075   Si       0.31705    0.86831    0.70573    1.000
    N2076    N        0.29246    0.85754    0.73984    1.000
    Si2077   Si       0.32389    0.79341    0.69301    1.000
    N2078    N        0.31632    0.78034    0.65110    1.000
    N2079    N        0.28456    0.79049    0.71305    1.000
    N2080    N        0.28978    0.93433    0.64061    1.000
    Si2081   Si       0.31172    0.89574    0.63600    1.000
    N2082    N        0.29603    0.96943    0.70567    1.000
    N2083    N        0.33989    0.90503    0.71064    1.000
    Si2084   Si       0.33411    0.98884    0.70169    1.000
    Si2085   Si       0.29987    0.84688    0.78049    1.000
    N2086    N        0.33493    0.77800    0.75659    1.000
    Si2087   Si       0.29386    0.76667    0.75654    1.000
    N2088    N        0.28518    0.86981    0.87014    1.000
    N2089    N        0.33757    0.83751    0.79665    1.000
    N2090    N        0.30319    0.93134    0.83293    1.000
    N2091    N        0.30418    0.92691    0.76269    1.000
    N2092    N        0.28961    0.99919    0.77681    1.000
    Si2093   Si       0.30327    0.96918    0.75065    1.000
    Si2094   Si       0.28597    0.91292    0.86708    1.000
    N2095    N        0.33186    0.81317    0.87636    1.000
    Si2096   Si       0.32632    0.85692    0.87714    1.000
    Si2097   Si       0.31769    0.82861    0.94550    1.000
    Si2098   Si       0.29059    0.79810    0.88178    1.000
    N2099    N        0.29505    0.84720    0.97713    1.000
    N2100    N        0.33815    0.86325    0.92071    1.000
    N2101    N        0.28847    0.78220    0.98973    1.000
    N2102    N        0.28360    0.80779    0.92571    1.000
    N2103    N        0.30556    0.91397    0.96984    1.000
    Si2104   Si       0.29504    0.95921    0.97850    1.000
    N2105    N        0.30713    0.92617    0.90154    1.000
    Si2106   Si       0.29973    0.96884    0.90854    1.000
    N2107    N        0.32187    0.97521    0.94627    1.000
    N2108    N        0.32105    0.99453    0.88263    1.000
    Si2109   Si       0.32754    0.90369    0.93193    1.000
    Si2110   Si       0.36941    0.08131    0.05778    1.000
    N2111    N        0.38556    0.04080    0.06185    1.000
    N2112    N        0.35339    0.09740    0.09410    1.000
    Si2113   Si       0.37925    0.12359    0.00329    1.000
    Si2114   Si       0.35587    0.01327    0.07729    1.000
    N2115    N        0.39893    0.10678    0.03916    1.000
    N2116    N        0.38317    0.20544    0.03118    1.000
    N2117    N        0.37210    0.24313    0.08418    1.000
    N2118    N        0.37380    0.16763    0.11038    1.000
    Si2119   Si       0.35239    0.20739    0.10625    1.000
    Si2120   Si       0.34556    0.23135    0.04160    1.000
    Si2121   Si       0.34303    0.13615    0.11422    1.000
    Si2122   Si       0.39193    0.07256    0.23856    1.000
    Si2123   Si       0.37909    0.12153    0.17239    1.000
    N2124    N        0.39057    0.02372    0.16292    1.000
    N2125    N        0.38889    0.08833    0.19822    1.000
    Si2126   Si       0.34772    0.01455    0.17244    1.000
    Si2127   Si       0.35755    0.18180    0.21296    1.000
    N2128    N        0.38797    0.16016    0.19245    1.000
    N2129    N        0.36871    0.22295    0.21429    1.000
    Si2130   Si       0.38954    0.25411    0.23531    1.000
    N2131    N        0.36398    0.05358    0.32585    1.000
    Si2132   Si       0.36404    0.08405    0.29412    1.000
    N2133    N        0.35657    0.05865    0.25920    1.000
    N2134    N        0.38386    0.11391    0.35211    1.000
    Si2135   Si       0.35604    0.01253    0.31536    1.000
    Si2136   Si       0.37577    0.07256    0.36424    1.000
    N2137    N        0.34014    0.11952    0.29966    1.000
    Si2138   Si       0.35719    0.14136    0.33565    1.000
    Si2139   Si       0.38076    0.18686    0.27814    1.000
    N2140    N        0.37155    0.17954    0.32023    1.000
    Si2141   Si       0.38730    0.21287    0.34529    1.000
    N2142    N        0.38157    0.25118    0.32639    1.000
    N2143    N        0.35482    0.16607    0.25254    1.000
    Si2144   Si       0.35689    0.05710    0.44409    1.000
    N2145    N        0.37578    0.08792    0.46765    1.000
    N2146    N        0.36830    0.01536    0.44539    1.000
    Si2147   Si       0.35567    0.12582    0.46605    1.000
    N2148    N        0.35159    0.06413    0.40039    1.000
    N2149    N        0.36671    0.20514    0.38339    1.000
    N2150    N        0.35185    0.20707    0.44386    1.000
    Si2151   Si       0.36989    0.20434    0.48494    1.000
    N2152    N        0.37515    0.15855    0.48864    1.000
    Si2153   Si       0.37502    0.17938    0.41905    1.000
    N2154    N        0.35301    0.14293    0.42324    1.000
    N2155    N        0.36777    0.04203    0.52186    1.000
    Si2156   Si       0.37842    0.09524    0.57671    1.000
    N2157    N        0.38847    0.10589    0.53624    1.000
    Si2158   Si       0.39454    0.07324    0.50485    1.000
    N2159    N        0.36964    0.13310    0.59549    1.000
    N2160    N        0.36460    0.23390    0.51975    1.000
    Si2161   Si       0.36443    0.16781    0.56910    1.000
    N2162    N        0.35544    0.19163    0.60490    1.000
    Si2163   Si       0.35221    0.10100    0.67224    1.000
    N2164    N        0.39251    0.08088    0.67069    1.000
    N2165    N        0.38913    0.01437    0.63853    1.000
    Si2166   Si       0.37354    0.15860    0.62985    1.000
    N2167    N        0.39294    0.22934    0.73729    1.000
    N2168    N        0.34800    0.14219    0.65956    1.000
    N2169    N        0.38302    0.23567    0.66794    1.000
    Si2170   Si       0.37117    0.08029    0.77183    1.000
    Si2171   Si       0.36033    0.05094    0.84000    1.000
    N2172    N        0.38543    0.07646    0.81193    1.000
    N2173    N        0.36593    0.12413    0.76529    1.000
    N2174    N        0.38658    0.02351    0.85920    1.000
    N2175    N        0.38815    0.12737    0.86104    1.000
    Si2176   Si       0.38374    0.17132    0.85556    1.000
    N2177    N        0.37477    0.17253    0.81501    1.000
    Si2178   Si       0.39578    0.14735    0.78604    1.000
    Si2179   Si       0.35228    0.24084    0.75200    1.000
    N2180    N        0.34917    0.23011    0.83545    1.000
    Si2181   Si       0.37720    0.25867    0.81729    1.000
    N2182    N        0.38059    0.09068    0.97283    1.000
    Si2183   Si       0.36566    0.10482    0.88982    1.000
    Si2184   Si       0.34977    0.06386    0.98410    1.000
    N2185    N        0.39261    0.07385    0.90558    1.000
    N2186    N        0.36667    0.02651    0.99231    1.000
    N2187    N        0.34908    0.13189    0.91958    1.000
    Si2188   Si       0.36547    0.17300    0.92381    1.000
    Si2189   Si       0.39296    0.19354    0.99185    1.000
    N2190    N        0.36048    0.19306    0.96281    1.000
    N2191    N        0.35457    0.18727    0.88283    1.000
    Si2192   Si       0.37093    0.28422    0.07109    1.000
    N2193    N        0.36388    0.27355    0.02922    1.000
    N2194    N        0.38597    0.36452    0.04580    1.000
    Si2195   Si       0.34734    0.35032    0.05734    1.000
    N2196    N        0.34618    0.31640    0.08608    1.000
    N2197    N        0.39055    0.36531    0.11315    1.000
    Si2198   Si       0.37417    0.29679    0.99281    1.000
    Si2199   Si       0.37011    0.47739    0.05098    1.000
    N2200    N        0.37803    0.43748    0.03417    1.000
    N2201    N        0.37639    0.50254    0.01508    1.000
    Si2202   Si       0.36609    0.41644    0.99945    1.000
    Si2203   Si       0.35046    0.37962    0.12264    1.000
    N2204    N        0.36826    0.28826    0.16145    1.000
    N2205    N        0.35066    0.27895    0.24287    1.000
    N2206    N        0.37301    0.45040    0.20839    1.000
    N2207    N        0.38708    0.48534    0.14250    1.000
    N2208    N        0.36760    0.40396    0.15638    1.000
    Si2209   Si       0.34171    0.42386    0.18547    1.000
    Si2210   Si       0.37472    0.29200    0.34250    1.000
    Si2211   Si       0.36826    0.31222    0.26436    1.000
    N2212    N        0.35646    0.30992    0.30604    1.000
    N2213    N        0.36696    0.35310    0.25067    1.000
    Si2214   Si       0.38569    0.38295    0.34021    1.000
    Si2215   Si       0.39254    0.38498    0.26763    1.000
    N2216    N        0.35791    0.49309    0.27336    1.000
    N2217    N        0.36683    0.41947    0.27145    1.000
    Si2218   Si       0.39482    0.49762    0.36622    1.000
    Si2219   Si       0.35566    0.45557    0.24779    1.000
    N2220    N        0.34477    0.39219    0.33137    1.000
    N2221    N        0.38123    0.35452    0.37570    1.000
    Si2222   Si       0.36202    0.29833    0.40327    1.000
    N2223    N        0.37817    0.33000    0.43067    1.000
    Si2224   Si       0.35268    0.36414    0.40950    1.000
    N2225    N        0.39903    0.28674    0.38350    1.000
    Si2226   Si       0.40220    0.31895    0.46735    1.000
    N2227    N        0.40531    0.27999    0.48666    1.000
    N2228    N        0.34269    0.46508    0.45991    1.000
    N2229    N        0.38047    0.46513    0.39397    1.000
    Si2230   Si       0.37233    0.48939    0.47875    1.000
    Si2231   Si       0.36381    0.42558    0.46052    1.000
    N2232    N        0.36144    0.40475    0.42204    1.000
    Si2233   Si       0.39867    0.42476    0.40170    1.000
    N2234    N        0.37977    0.28294    0.60593    1.000
    N2235    N        0.36174    0.29997    0.54586    1.000
    N2236    N        0.37456    0.34947    0.60896    1.000
    Si2237   Si       0.38925    0.27054    0.52599    1.000
    Si2238   Si       0.35929    0.31473    0.58594    1.000
    N2239    N        0.38066    0.34136    0.49777    1.000
    Si2240   Si       0.39233    0.38011    0.51554    1.000
    Si2241   Si       0.34349    0.31784    0.50849    1.000
    Si2242   Si       0.37442    0.38406    0.58295    1.000
    Si2243   Si       0.35357    0.45396    0.60995    1.000
    N2244    N        0.37739    0.41798    0.60955    1.000
    N2245    N        0.38614    0.48016    0.61398    1.000
    N2246    N        0.39023    0.48757    0.51857    1.000
    N2247    N        0.35933    0.40426    0.49877    1.000
    N2248    N        0.36548    0.30291    0.72194    1.000
    Si2249   Si       0.35185    0.37035    0.64338    1.000
    Si2250   Si       0.37969    0.27427    0.64844    1.000
    Si2251   Si       0.35367    0.49279    0.71160    1.000
    Si2252   Si       0.38679    0.42384    0.70187    1.000
    N2253    N        0.36171    0.39540    0.67911    1.000
    N2254    N        0.36264    0.45391    0.72376    1.000
    N2255    N        0.38369    0.50216    0.68257    1.000
    N2256    N        0.36705    0.34444    0.78831    1.000
    Si2257   Si       0.37335    0.30780    0.76338    1.000
    Si2258   Si       0.37835    0.32057    0.86173    1.000
    N2259    N        0.35154    0.27221    0.78345    1.000
    N2260    N        0.39766    0.28791    0.84221    1.000
    N2261    N        0.34090    0.43445    0.78282    1.000
    Si2262   Si       0.35347    0.43397    0.82835    1.000
    Si2263   Si       0.37990    0.44033    0.76322    1.000
    N2264    N        0.35519    0.40486    0.86166    1.000
    N2265    N        0.38267    0.46401    0.84650    1.000
    Si2266   Si       0.38272    0.50558    0.85748    1.000
    N2267    N        0.39526    0.41158    0.81051    1.000
    N2268    N        0.38270    0.31626    0.90496    1.000
    N2269    N        0.37166    0.26642    0.95872    1.000
    N2270    N        0.35718    0.32958    0.96919    1.000
    Si2271   Si       0.37137    0.27422    0.91304    1.000
    Si2272   Si       0.36485    0.34863    0.92903    1.000
    N2273    N        0.38745    0.38419    0.91582    1.000
    N2274    N        0.36522    0.44732    0.96948    1.000
    Si2275   Si       0.39536    0.39186    0.87406    1.000
    Si2276   Si       0.39404    0.47873    0.98142    1.000
    Si2277   Si       0.37020    0.59000    0.08428    1.000
    Si2278   Si       0.36936    0.54316    0.02364    1.000
    N2279    N        0.35544    0.55451    0.06490    1.000
    N2280    N        0.35559    0.62335    0.06077    1.000
    Si2281   Si       0.36546    0.64697    0.02645    1.000
    Si2282   Si       0.39123    0.71026    0.06183    1.000
    N2283    N        0.34695    0.71650    0.06851    1.000
    N2284    N        0.39861    0.67489    0.03436    1.000
    N2285    N        0.34203    0.74299    0.00085    1.000
    Si2286   Si       0.36274    0.51849    0.15509    1.000
    N2287    N        0.38249    0.54660    0.23230    1.000
    N2288    N        0.38996    0.55058    0.16839    1.000
    N2289    N        0.35616    0.61426    0.24211    1.000
    Si2290   Si       0.34454    0.55128    0.21079    1.000
    N2291    N        0.34096    0.51049    0.19224    1.000
    Si2292   Si       0.39110    0.71573    0.13811    1.000
    N2293    N        0.35107    0.65559    0.18754    1.000
    N2294    N        0.35004    0.69990    0.13381    1.000
    N2295    N        0.34750    0.72847    0.19461    1.000
    Si2296   Si       0.39516    0.65524    0.18773    1.000
    N2297    N        0.36494    0.56539    0.29890    1.000
    Si2298   Si       0.37808    0.52918    0.26968    1.000
    Si2299   Si       0.39254    0.63261    0.25872    1.000
    N2300    N        0.36353    0.51109    0.34242    1.000
    Si2301   Si       0.34219    0.55196    0.33680    1.000
    N2302    N        0.34495    0.63500    0.34056    1.000
    N2303    N        0.38675    0.68894    0.35862    1.000
    Si2304   Si       0.35901    0.72389    0.35660    1.000
    Si2305   Si       0.36504    0.67054    0.32534    1.000
    N2306    N        0.38257    0.66301    0.28802    1.000
    Si2307   Si       0.37543    0.69079    0.25433    1.000
    N2308    N        0.36690    0.57261    0.37042    1.000
    Si2309   Si       0.35281    0.61466    0.37884    1.000
    Si2310   Si       0.39292    0.61308    0.43991    1.000
    N2311    N        0.39024    0.56954    0.43808    1.000
    Si2312   Si       0.37781    0.54597    0.40552    1.000
    N2313    N        0.35833    0.62549    0.46352    1.000
    N2314    N        0.35031    0.52611    0.48793    1.000
    N2315    N        0.34601    0.51814    0.41467    1.000
    N2316    N        0.38567    0.63148    0.40155    1.000
    Si2317   Si       0.35671    0.70196    0.46159    1.000
    N2318    N        0.35460    0.74607    0.46010    1.000
    N2319    N        0.39010    0.69281    0.43331    1.000
    Si2320   Si       0.37370    0.53088    0.52501    1.000
    N2321    N        0.37557    0.60177    0.57523    1.000
    N2322    N        0.36145    0.52482    0.56506    1.000
    N2323    N        0.35457    0.57597    0.52266    1.000
    Si2324   Si       0.37396    0.61647    0.61496    1.000
    Si2325   Si       0.39572    0.51479    0.59071    1.000
    Si2326   Si       0.40119    0.58919    0.54175    1.000
    Si2327   Si       0.36423    0.64258    0.50226    1.000
    Si2328   Si       0.38727    0.70345    0.53372    1.000
    N2329    N        0.35238    0.70065    0.55828    1.000
    Si2330   Si       0.34309    0.69154    0.59969    1.000
    Si2331   Si       0.39647    0.74735    0.61250    1.000
    N2332    N        0.39899    0.74181    0.51396    1.000
    N2333    N        0.37161    0.68355    0.49775    1.000
    N2334    N        0.35206    0.58924    0.64124    1.000
    Si2335   Si       0.37011    0.59238    0.68236    1.000
    N2336    N        0.37460    0.52282    0.74190    1.000
    N2337    N        0.39032    0.63033    0.67838    1.000
    Si2338   Si       0.34426    0.55816    0.74479    1.000
    N2339    N        0.36092    0.65790    0.61955    1.000
    N2340    N        0.36666    0.68551    0.68731    1.000
    Si2341   Si       0.38860    0.67063    0.65397    1.000
    Si2342   Si       0.38195    0.65328    0.71916    1.000
    N2343    N        0.36338    0.72225    0.62518    1.000
    Si2344   Si       0.35770    0.74695    0.73352    1.000
    N2345    N        0.40046    0.74759    0.74293    1.000
    N2346    N        0.37545    0.52681    0.81929    1.000
    Si2347   Si       0.36927    0.62392    0.77832    1.000
    N2348    N        0.35891    0.57767    0.77902    1.000
    Si2349   Si       0.39442    0.51845    0.78185    1.000
    Si2350   Si       0.34832    0.55955    0.81729    1.000
    N2351    N        0.34862    0.58054    0.85739    1.000
    N2352    N        0.37474    0.64938    0.86130    1.000
    Si2353   Si       0.38022    0.67629    0.82739    1.000
    N2354    N        0.35107    0.70219    0.80356    1.000
    N2355    N        0.40472    0.70810    0.84195    1.000
    N2356    N        0.40113    0.64933    0.79852    1.000
    N2357    N        0.34674    0.64726    0.74480    1.000
    N2358    N        0.34292    0.50803    0.87653    1.000
    N2359    N        0.35005    0.54959    0.92305    1.000
    Si2360   Si       0.38314    0.58439    0.98040    1.000
    Si2361   Si       0.39198    0.54125    0.92309    1.000
    N2362    N        0.34478    0.56201    0.99139    1.000
    N2363    N        0.36985    0.62437    0.98963    1.000
    N2364    N        0.38944    0.70164    0.90858    1.000
    Si2365   Si       0.38218    0.72640    0.87378    1.000
    N2366    N        0.37832    0.68572    0.97264    1.000
    Si2367   Si       0.38847    0.65970    0.90195    1.000
    Si2368   Si       0.37129    0.71795    0.94601    1.000
    Si2369   Si       0.34956    0.65365    0.96418    1.000
    N2370    N        0.35139    0.64677    0.92182    1.000
    N2371    N        0.36280    0.86345    0.09384    1.000
    Si2372   Si       0.36503    0.83305    0.05873    1.000
    N2373    N        0.38660    0.80235    0.08074    1.000
    N2374    N        0.39351    0.79980    0.01186    1.000
    N2375    N        0.39494    0.85978    0.03671    1.000
    Si2376   Si       0.39702    0.85842    0.12019    1.000
    Si2377   Si       0.36802    0.89626    0.04914    1.000
    N2378    N        0.35821    0.90799    0.00795    1.000
    Si2379   Si       0.38012    0.99189    0.01293    1.000
    N2380    N        0.35350    0.98329    0.04687    1.000
    N2381    N        0.36358    0.98997    0.11111    1.000
    N2382    N        0.38774    0.78321    0.20748    1.000
    Si2383   Si       0.36079    0.76692    0.17737    1.000
    N2384    N        0.35078    0.83754    0.20498    1.000
    N2385    N        0.39258    0.82418    0.14820    1.000
    Si2386   Si       0.39201    0.82664    0.19171    1.000
    Si2387   Si       0.34451    0.87397    0.22783    1.000
    N2388    N        0.38511    0.75864    0.14208    1.000
    N2389    N        0.35492    0.90284    0.19653    1.000
    Si2390   Si       0.39752    0.90206    0.18896    1.000
    N2391    N        0.35644    0.82657    0.30570    1.000
    Si2392   Si       0.36207    0.78106    0.30217    1.000
    Si2393   Si       0.38763    0.85462    0.29401    1.000
    N2394    N        0.36664    0.76560    0.34345    1.000
    N2395    N        0.39877    0.87680    0.32998    1.000
    N2396    N        0.36414    0.87751    0.26485    1.000
    Si2397   Si       0.39028    0.79156    0.36764    1.000
    N2398    N        0.39220    0.99127    0.30398    1.000
    Si2399   Si       0.38732    0.94935    0.30853    1.000
    N2400    N        0.39481    0.94312    0.35084    1.000
    N2401    N        0.34564    0.93926    0.30340    1.000
    N2402    N        0.34324    0.98769    0.35107    1.000
    Si2403   Si       0.35333    0.94823    0.36596    1.000
    Si2404   Si       0.39293    0.87050    0.37140    1.000
    N2405    N        0.37199    0.83219    0.37578    1.000
    Si2406   Si       0.36526    0.86971    0.48055    1.000
    N2407    N        0.39290    0.77145    0.40608    1.000
    Si2408   Si       0.37387    0.76823    0.49036    1.000
    Si2409   Si       0.35228    0.75948    0.41718    1.000
    N2410    N        0.39076    0.89642    0.40711    1.000
    Si2411   Si       0.37715    0.92858    0.43188    1.000
    N2412    N        0.35054    0.95440    0.40983    1.000
    N2413    N        0.35756    0.91256    0.46720    1.000
    Si2414   Si       0.38530    0.80489    0.55082    1.000
    N2415    N        0.38691    0.83453    0.58111    1.000
    N2416    N        0.35280    0.79287    0.52218    1.000
    N2417    N        0.38535    0.85237    0.51706    1.000
    Si2418   Si       0.39551    0.87066    0.55613    1.000
    N2419    N        0.39696    0.76725    0.57368    1.000
    N2420    N        0.36418    0.90231    0.56219    1.000
    N2421    N        0.36323    0.96968    0.59488    1.000
    N2422    N        0.35547    0.96897    0.52324    1.000
    Si2423   Si       0.37152    0.92568    0.59786    1.000
    Si2424   Si       0.38713    0.00075    0.52035    1.000
    N2425    N        0.35768    0.76159    0.69159    1.000
    N2426    N        0.39380    0.78226    0.63882    1.000
    Si2427   Si       0.39906    0.77049    0.68030    1.000
    N2428    N        0.33837    0.83173    0.69725    1.000
    N2429    N        0.35384    0.97007    0.66983    1.000
    N2430    N        0.35511    0.90883    0.63582    1.000
    Si2431   Si       0.35308    0.98998    0.63135    1.000
    Si2432   Si       0.35971    0.92801    0.67747    1.000
    Si2433   Si       0.39676    0.89176    0.64236    1.000
    N2434    N        0.39357    0.92443    0.74467    1.000
    N2435    N        0.34802    0.97152    0.74245    1.000
    Si2436   Si       0.35603    0.79867    0.78961    1.000
    Si2437   Si       0.36255    0.86797    0.81105    1.000
    Si2438   Si       0.36864    0.79343    0.85967    1.000
    N2439    N        0.35739    0.77278    0.82376    1.000
    N2440    N        0.39889    0.82325    0.84866    1.000
    N2441    N        0.39719    0.80626    0.77900    1.000
    N2442    N        0.34795    0.88130    0.84924    1.000
    Si2443   Si       0.39008    0.96963    0.75844    1.000
    N2444    N        0.37119    0.95578    0.84972    1.000
    N2445    N        0.36023    0.90912    0.79346    1.000
    Si2446   Si       0.34827    0.92051    0.75189    1.000
    Si2447   Si       0.34515    0.92507    0.83223    1.000
    N2448    N        0.39202    0.86658    0.96812    1.000
    Si2449   Si       0.38335    0.86960    0.92728    1.000
    N2450    N        0.38663    0.76683    0.88896    1.000
    Si2451   Si       0.36902    0.77629    0.98678    1.000
    N2452    N        0.39714    0.82543    0.91898    1.000
    N2453    N        0.34486    0.80024    0.96112    1.000
    N2454    N        0.39396    0.75391    0.95638    1.000
    Si2455   Si       0.38870    0.91295    0.97741    1.000
    N2456    N        0.36861    0.91870    0.93817    1.000
    N2457    N        0.38710    0.96479    0.98047    1.000
    N2458    N        0.38460    0.98496    0.91281    1.000
    Si2459   Si       0.36433    0.96324    0.94386    1.000
    Si2460   Si       0.36204    0.98980    0.87470    1.000
    Si2461   Si       0.42643    0.02453    0.05497    1.000
    Si2462   Si       0.44147    0.10544    0.04823    1.000
    N2463    N        0.44896    0.06188    0.05034    1.000
    N2464    N        0.43063    0.01034    0.09712    1.000
    N2465    N        0.44352    0.13522    0.08263    1.000
    N2466    N        0.43094    0.20335    0.08572    1.000
    Si2467   Si       0.40829    0.22876    0.05975    1.000
    Si2468   Si       0.41666    0.15265    0.11257    1.000
    N2469    N        0.43569    0.25355    0.03604    1.000
    Si2470   Si       0.45613    0.23059    0.00648    1.000
    Si2471   Si       0.45745    0.17386    0.06306    1.000
    Si2472   Si       0.45191    0.01468    0.23178    1.000
    Si2473   Si       0.44904    0.10987    0.16165    1.000
    Si2474   Si       0.41210    0.05328    0.18441    1.000
    N2475    N        0.41570    0.03911    0.22636    1.000
    N2476    N        0.41075    0.11978    0.14160    1.000
    N2477    N        0.45045    0.06845    0.17539    1.000
    N2478    N        0.43996    0.20339    0.20946    1.000
    Si2479   Si       0.44796    0.24064    0.18759    1.000
    N2480    N        0.43966    0.17668    0.14282    1.000
    N2481    N        0.45465    0.13538    0.19550    1.000
    Si2482   Si       0.43071    0.16993    0.18486    1.000
    Si2483   Si       0.44833    0.21549    0.12321    1.000
    N2484    N        0.43027    0.24754    0.14782    1.000
    Si2485   Si       0.42849    0.10783    0.35750    1.000
    N2486    N        0.44183    0.10299    0.31610    1.000
    Si2487   Si       0.43075    0.12816    0.28042    1.000
    N2488    N        0.44419    0.04045    0.29054    1.000
    N2489    N        0.39966    0.09894    0.27188    1.000
    N2490    N        0.42804    0.19980    0.35398    1.000
    N2491    N        0.42132    0.16870    0.27081    1.000
    N2492    N        0.44971    0.24496    0.31204    1.000
    Si2493   Si       0.43931    0.20346    0.25303    1.000
    N2494    N        0.40275    0.22723    0.26764    1.000
    N2495    N        0.41838    0.06987    0.37558    1.000
    Si2496   Si       0.43730    0.03482    0.39096    1.000
    N2497    N        0.43495    0.03308    0.43618    1.000
    Si2498   Si       0.45608    0.04388    0.47178    1.000
    Si2499   Si       0.43949    0.17545    0.38716    1.000
    N2500    N        0.43581    0.13762    0.48970    1.000
    Si2501   Si       0.42953    0.25085    0.46614    1.000
    N2502    N        0.41388    0.21141    0.47381    1.000
    N2503    N        0.45625    0.13658    0.37543    1.000
    Si2504   Si       0.43310    0.17249    0.46102    1.000
    N2505    N        0.41659    0.16821    0.42116    1.000
    N2506    N        0.41237    0.07398    0.59834    1.000
    N2507    N        0.43534    0.06973    0.50036    1.000
    Si2508   Si       0.45660    0.05899    0.60116    1.000
    Si2509   Si       0.43321    0.17462    0.58595    1.000
    N2510    N        0.44859    0.21474    0.58408    1.000
    Si2511   Si       0.45483    0.23373    0.54370    1.000
    N2512    N        0.46243    0.24753    0.49810    1.000
    Si2513   Si       0.40383    0.14250    0.51765    1.000
    N2514    N        0.40455    0.16861    0.55214    1.000
    N2515    N        0.44953    0.05001    0.70676    1.000
    Si2516   Si       0.41914    0.08459    0.70520    1.000
    N2517    N        0.44014    0.12101    0.70933    1.000
    N2518    N        0.44505    0.04113    0.63949    1.000
    Si2519   Si       0.40230    0.05607    0.63630    1.000
    N2520    N        0.40467    0.07143    0.74364    1.000
    Si2521   Si       0.41375    0.23228    0.69673    1.000
    N2522    N        0.41647    0.17159    0.62614    1.000
    N2523    N        0.42950    0.19096    0.69555    1.000
    Si2524   Si       0.44650    0.17839    0.65687    1.000
    Si2525   Si       0.43965    0.16191    0.72579    1.000
    N2526    N        0.43848    0.07762    0.85903    1.000
    Si2527   Si       0.41210    0.10104    0.83474    1.000
    N2528    N        0.43113    0.12572    0.80444    1.000
    Si2529   Si       0.43716    0.04256    0.74871    1.000
    Si2530   Si       0.44253    0.22248    0.83226    1.000
    N2531    N        0.42773    0.17415    0.76448    1.000
    N2532    N        0.41863    0.19680    0.85783    1.000
    Si2533   Si       0.42788    0.22027    0.76583    1.000
    N2534    N        0.41172    0.23764    0.80285    1.000
    Si2535   Si       0.45777    0.16024    0.79464    1.000
    N2536    N        0.45897    0.25228    0.85577    1.000
    N2537    N        0.44802    0.01512    0.89280    1.000
    Si2538   Si       0.41650    0.04510    0.88056    1.000
    N2539    N        0.43119    0.04271    0.94883    1.000
    N2540    N        0.44103    0.11047    0.94265    1.000
    Si2541   Si       0.41102    0.07916    0.94455    1.000
    Si2542   Si       0.43078    0.15223    0.95208    1.000
    Si2543   Si       0.42455    0.20720    0.89891    1.000
    N2544    N        0.40910    0.17390    0.92100    1.000
    N2545    N        0.42369    0.22121    0.97764    1.000
    N2546    N        0.40741    0.15291    0.98789    1.000
    Si2547   Si       0.41252    0.25179    0.94969    1.000
    N2548    N        0.40349    0.24394    0.90952    1.000
    Si2549   Si       0.43528    0.29624    0.04297    1.000
    N2550    N        0.41088    0.30028    0.07883    1.000
    Si2551   Si       0.41660    0.33209    0.10650    1.000
    N2552    N        0.41480    0.31527    0.00615    1.000
    N2553    N        0.44599    0.35691    0.08656    1.000
    Si2554   Si       0.41118    0.35952    0.00900    1.000
    N2555    N        0.45590    0.35914    0.00373    1.000
    Si2556   Si       0.41282    0.38708    0.07557    1.000
    N2557    N        0.43740    0.40891    0.04554    1.000
    Si2558   Si       0.42421    0.44995    0.03819    1.000
    Si2559   Si       0.44874    0.49968    0.07448    1.000
    N2560    N        0.40969    0.42227    0.10309    1.000
    N2561    N        0.40848    0.47878    0.07166    1.000
    N2562    N        0.45522    0.48641    0.11656    1.000
    Si2563   Si       0.41735    0.46290    0.11926    1.000
    Si2564   Si       0.44031    0.29877    0.23892    1.000
    N2565    N        0.43113    0.31675    0.14544    1.000
    N2566    N        0.42094    0.26845    0.20625    1.000
    Si2567   Si       0.41025    0.28244    0.16462    1.000
    N2568    N        0.44604    0.33097    0.21039    1.000
    Si2569   Si       0.45643    0.34259    0.17064    1.000
    N2570    N        0.44516    0.38429    0.16102    1.000
    N2571    N        0.42820    0.39077    0.24487    1.000
    Si2572   Si       0.40951    0.40030    0.14185    1.000
    N2573    N        0.42603    0.44290    0.15917    1.000
    N2574    N        0.42757    0.49776    0.20324    1.000
    Si2575   Si       0.40259    0.46974    0.18234    1.000
    Si2576   Si       0.43829    0.34057    0.30715    1.000
    N2577    N        0.42245    0.30453    0.32608    1.000
    N2578    N        0.40546    0.28945    0.26397    1.000
    N2579    N        0.40639    0.36933    0.30565    1.000
    Si2580   Si       0.43982    0.29256    0.36407    1.000
    Si2581   Si       0.41179    0.26332    0.29958    1.000
    Si2582   Si       0.43934    0.49381    0.30045    1.000
    Si2583   Si       0.43972    0.44360    0.35515    1.000
    N2584    N        0.42422    0.47991    0.33856    1.000
    N2585    N        0.44287    0.46692    0.26627    1.000
    Si2586   Si       0.45340    0.42601    0.25550    1.000
    N2587    N        0.40636    0.41478    0.35934    1.000
    Si2588   Si       0.41227    0.34514    0.40346    1.000
    N2589    N        0.44396    0.32865    0.45891    1.000
    N2590    N        0.45075    0.32730    0.38697    1.000
    N2591    N        0.45336    0.26808    0.43330    1.000
    Si2592   Si       0.45785    0.34950    0.49412    1.000
    N2593    N        0.40586    0.50420    0.45542    1.000
    N2594    N        0.43096    0.38458    0.49347    1.000
    N2595    N        0.40586    0.43979    0.45266    1.000
    N2596    N        0.44394    0.44736    0.39793    1.000
    N2597    N        0.42270    0.38493    0.41927    1.000
    Si2598   Si       0.43020    0.40456    0.45623    1.000
    Si2599   Si       0.42988    0.47524    0.43203    1.000
    N2600    N        0.43531    0.32157    0.59269    1.000
    Si2601   Si       0.41999    0.27865    0.59151    1.000
    N2602    N        0.42060    0.26221    0.55204    1.000
    N2603    N        0.40436    0.39452    0.55373    1.000
    Si2604   Si       0.43252    0.48001    0.53349    1.000
    Si2605   Si       0.44222    0.41171    0.56564    1.000
    N2606    N        0.44729    0.42012    0.60795    1.000
    N2607    N        0.45874    0.44722    0.54620    1.000
    N2608    N        0.45568    0.50348    0.50714    1.000
    N2609    N        0.43147    0.51089    0.56590    1.000
    N2610    N        0.40115    0.30904    0.66199    1.000
    Si2611   Si       0.45889    0.28135    0.66232    1.000
    Si2612   Si       0.41037    0.33277    0.62646    1.000
    N2613    N        0.44126    0.26465    0.62766    1.000
    Si2614   Si       0.44941    0.35730    0.67500    1.000
    N2615    N        0.42375    0.37071    0.64286    1.000
    Si2616   Si       0.40917    0.30721    0.71029    1.000
    N2617    N        0.43596    0.27122    0.69900    1.000
    N2618    N        0.42793    0.34811    0.71219    1.000
    Si2619   Si       0.43591    0.38034    0.74305    1.000
    Si2620   Si       0.40749    0.48083    0.65306    1.000
    Si2621   Si       0.41207    0.41232    0.63389    1.000
    N2622    N        0.40465    0.41083    0.73979    1.000
    N2623    N        0.44802    0.49607    0.65168    1.000
    N2624    N        0.41107    0.43884    0.66811    1.000
    N2625    N        0.43416    0.35867    0.78195    1.000
    Si2626   Si       0.44075    0.29144    0.84676    1.000
    N2627    N        0.41399    0.29993    0.75705    1.000
    Si2628   Si       0.44853    0.31931    0.77392    1.000
    N2629    N        0.40206    0.35614    0.84933    1.000
    Si2630   Si       0.40085    0.36776    0.80683    1.000
    N2631    N        0.43026    0.41552    0.86919    1.000
    N2632    N        0.44907    0.46709    0.82854    1.000
    Si2633   Si       0.41681    0.44032    0.83534    1.000
    Si2634   Si       0.44486    0.48456    0.78687    1.000
    N2635    N        0.40375    0.47509    0.77869    1.000
    N2636    N        0.43930    0.28452    0.95035    1.000
    Si2637   Si       0.44862    0.32402    0.97531    1.000
    Si2638   Si       0.42661    0.31460    0.91668    1.000
    N2639    N        0.43409    0.34842    0.94308    1.000
    N2640    N        0.44920    0.31490    0.88069    1.000
    N2641    N        0.43063    0.45871    0.99376    1.000
    Si2642   Si       0.42063    0.38867    0.94459    1.000
    N2643    N        0.45208    0.41803    0.93933    1.000
    N2644    N        0.39922    0.39196    0.98260    1.000
    N2645    N        0.39688    0.50921    0.95159    1.000
    Si2646   Si       0.44376    0.55808    0.02724    1.000
    N2647    N        0.40842    0.58637    0.10404    1.000
    Si2648   Si       0.44901    0.56841    0.10203    1.000
    N2649    N        0.44756    0.54096    0.06770    1.000
    N2650    N        0.40276    0.56762    0.01502    1.000
    N2651    N        0.41603    0.74575    0.04681    1.000
    N2652    N        0.40960    0.70615    0.10037    1.000
    Si2653   Si       0.45356    0.73394    0.02945    1.000
    Si2654   Si       0.45183    0.71006    0.10388    1.000
    N2655    N        0.44992    0.56326    0.14487    1.000
    Si2656   Si       0.41442    0.54005    0.20391    1.000
    Si2657   Si       0.40894    0.58314    0.14727    1.000
    N2658    N        0.45028    0.56346    0.21335    1.000
    N2659    N        0.40827    0.61540    0.17397    1.000
    Si2660   Si       0.45057    0.66802    0.22978    1.000
    N2661    N        0.40574    0.66167    0.22922    1.000
    N2662    N        0.41097    0.68711    0.16424    1.000
    Si2663   Si       0.45421    0.69352    0.16085    1.000
    N2664    N        0.41904    0.60006    0.26981    1.000
    N2665    N        0.41824    0.52848    0.28497    1.000
    N2666    N        0.43529    0.57452    0.33288    1.000
    Si2667   Si       0.41022    0.57072    0.29978    1.000
    Si2668   Si       0.45747    0.59103    0.24803    1.000
    N2669    N        0.44993    0.74166    0.31062    1.000
    Si2670   Si       0.44052    0.72967    0.27160    1.000
    N2671    N        0.40070    0.72451    0.25501    1.000
    Si2672   Si       0.44656    0.55910    0.37344    1.000
    N2673    N        0.41548    0.53103    0.38682    1.000
    N2674    N        0.43200    0.62050    0.45756    1.000
    Si2675   Si       0.41120    0.54617    0.46909    1.000
    N2676    N        0.45302    0.55638    0.46218    1.000
    Si2677   Si       0.43124    0.70046    0.44805    1.000
    N2678    N        0.44307    0.68226    0.40899    1.000
    Si2679   Si       0.40277    0.67305    0.39575    1.000
    N2680    N        0.44811    0.68079    0.48463    1.000
    Si2681   Si       0.43891    0.63869    0.49492    1.000
    N2682    N        0.44321    0.74260    0.45081    1.000
    N2683    N        0.44117    0.58207    0.56498    1.000
    Si2684   Si       0.44933    0.54174    0.53988    1.000
    Si2685   Si       0.43464    0.57850    0.60963    1.000
    N2686    N        0.41214    0.55400    0.51480    1.000
    N2687    N        0.40588    0.54694    0.61673    1.000
    N2688    N        0.40333    0.62656    0.51841    1.000
    N2689    N        0.42167    0.69980    0.55964    1.000
    N2690    N        0.43894    0.73256    0.61658    1.000
    Si2691   Si       0.45639    0.71353    0.58066    1.000
    N2692    N        0.41809    0.61509    0.62309    1.000
    N2693    N        0.45504    0.60993    0.69259    1.000
    Si2694   Si       0.42786    0.59334    0.72200    1.000
    Si2695   Si       0.40684    0.52558    0.71255    1.000
    N2696    N        0.40223    0.56697    0.70073    1.000
    N2697    N        0.44219    0.50378    0.72138    1.000
    N2698    N        0.42560    0.73581    0.68268    1.000
    Si2699   Si       0.42812    0.71858    0.72411    1.000
    Si2700   Si       0.44930    0.71255    0.65612    1.000
    Si2701   Si       0.43920    0.63079    0.65844    1.000
    N2702    N        0.41109    0.68089    0.73541    1.000
    N2703    N        0.42984    0.67470    0.65381    1.000
    N2704    N        0.43646    0.52805    0.78695    1.000
    N2705    N        0.40233    0.62095    0.74401    1.000
    Si2706   Si       0.42903    0.65562    0.76617    1.000
    Si2707   Si       0.43851    0.72060    0.82140    1.000
    N2708    N        0.45118    0.68705    0.79372    1.000
    N2709    N        0.43769    0.76139    0.81166    1.000
    N2710    N        0.40475    0.57939    0.94393    1.000
    N2711    N        0.45258    0.58312    0.88913    1.000
    N2712    N        0.41045    0.52704    0.88382    1.000
    Si2713   Si       0.43728    0.60193    0.92654    1.000
    Si2714   Si       0.45319    0.54014    0.88577    1.000
    N2715    N        0.43714    0.71647    0.99422    1.000
    Si2716   Si       0.43725    0.73637    0.95510    1.000
    Si2717   Si       0.45831    0.66380    0.93830    1.000
    Si2718   Si       0.41414    0.67986    0.99496    1.000
    N2719    N        0.42633    0.64280    0.91678    1.000
    N2720    N        0.44560    0.65318    0.97969    1.000
    N2721    N        0.46075    0.70731    0.93125    1.000
    N2722    N        0.43321    0.85644    0.09579    1.000
    Si2723   Si       0.41278    0.78857    0.04895    1.000
    N2724    N        0.45128    0.80713    0.05244    1.000
    Si2725   Si       0.40599    0.84076    0.99912    1.000
    Si2726   Si       0.42753    0.88370    0.06150    1.000
    Si2727   Si       0.41585    0.93051    0.11199    1.000
    N2728    N        0.42264    0.99434    0.02173    1.000
    N2729    N        0.45446    0.94352    0.09203    1.000
    N2730    N        0.39903    0.91444    0.07479    1.000
    N2731    N        0.42959    0.91995    0.99225    1.000
    N2732    N        0.44468    0.79041    0.11682    1.000
    N2733    N        0.41456    0.86281    0.20589    1.000
    Si2734   Si       0.44480    0.86586    0.23764    1.000
    Si2735   Si       0.40504    0.76738    0.24318    1.000
    Si2736   Si       0.39970    0.79209    0.12138    1.000
    N2737    N        0.44966    0.76401    0.24376    1.000
    N2738    N        0.45731    0.99750    0.19064    1.000
    Si2739   Si       0.40270    0.99994    0.12729    1.000
    N2740    N        0.41878    0.96182    0.14057    1.000
    N2741    N        0.40408    0.89639    0.14444    1.000
    Si2742   Si       0.43908    0.95964    0.17824    1.000
    N2743    N        0.41616    0.93491    0.20773    1.000
    N2744    N        0.42941    0.80031    0.34930    1.000
    Si2745   Si       0.43855    0.78366    0.31078    1.000
    N2746    N        0.42959    0.86290    0.27759    1.000
    N2747    N        0.40221    0.78284    0.28472    1.000
    N2748    N        0.44347    0.98028    0.25606    1.000
    Si2749   Si       0.42936    0.89461    0.30596    1.000
    N2750    N        0.41553    0.92911    0.28281    1.000
    Si2751   Si       0.43497    0.99846    0.29585    1.000
    N2752    N        0.45428    0.98368    0.33056    1.000
    Si2753   Si       0.43145    0.96438    0.36422    1.000
    Si2754   Si       0.43668    0.93852    0.24657    1.000
    N2755    N        0.40214    0.79337    0.46906    1.000
    N2756    N        0.43290    0.85797    0.38609    1.000
    Si2757   Si       0.42508    0.77826    0.43544    1.000
    Si2758   Si       0.42462    0.87201    0.42543    1.000
    Si2759   Si       0.45377    0.82193    0.37765    1.000
    Si2760   Si       0.41599    0.82855    0.49320    1.000
    N2761    N        0.45550    0.80483    0.41752    1.000
    N2762    N        0.40139    0.86030    0.45890    1.000
    N2763    N        0.41395    0.99860    0.38435    1.000
    N2764    N        0.45782    0.89655    0.43831    1.000
    Si2765   Si       0.44752    0.93900    0.43383    1.000
    N2766    N        0.41936    0.99828    0.48927    1.000
    Si2767   Si       0.40780    0.00057    0.44490    1.000
    N2768    N        0.40919    0.95634    0.44073    1.000
    N2769    N        0.46061    0.95023    0.39396    1.000
    N2770    N        0.42648    0.80258    0.53082    1.000
    N2771    N        0.44613    0.81286    0.60816    1.000
    N2772    N        0.44141    0.86129    0.55440    1.000
    Si2773   Si       0.40278    0.81951    0.61843    1.000
    Si2774   Si       0.42682    0.75896    0.54157    1.000
    N2775    N        0.44440    0.97535    0.60678    1.000
    Si2776   Si       0.44945    0.93207    0.60977    1.000
    N2777    N        0.41173    0.91272    0.60677    1.000
    Si2778   Si       0.45070    0.99546    0.56837    1.000
    N2779    N        0.41209    0.00487    0.55525    1.000
    Si2780   Si       0.43075    0.83555    0.68611    1.000
    N2781    N        0.40633    0.84939    0.65071    1.000
    N2782    N        0.42516    0.86800    0.71336    1.000
    N2783    N        0.41590    0.80042    0.70581    1.000
    Si2784   Si       0.42876    0.99824    0.63804    1.000
    N2785    N        0.45605    0.93512    0.71413    1.000
    Si2786   Si       0.42017    0.91116    0.71259    1.000
    N2787    N        0.45435    0.99076    0.67168    1.000
    N2788    N        0.40147    0.91869    0.67623    1.000
    Si2789   Si       0.41727    0.82789    0.80930    1.000
    N2790    N        0.40685    0.86985    0.80184    1.000
    N2791    N        0.46070    0.83055    0.80988    1.000
    Si2792   Si       0.41949    0.78704    0.74849    1.000
    N2793    N        0.41941    0.00031    0.75458    1.000
    N2794    N        0.45335    0.90212    0.77361    1.000
    Si2795   Si       0.40932    0.91029    0.78439    1.000
    Si2796   Si       0.41610    0.96165    0.84102    1.000
    N2797    N        0.41351    0.95174    0.79863    1.000
    N2798    N        0.45173    0.98970    0.82849    1.000
    Si2799   Si       0.45311    0.99225    0.78584    1.000
    N2800    N        0.45958    0.89970    0.84326    1.000
    N2801    N        0.44718    0.77305    0.93453    1.000
    Si2802   Si       0.41931    0.83967    0.88353    1.000
    N2803    N        0.44725    0.83253    0.98795    1.000
    N2804    N        0.46110    0.82733    0.89071    1.000
    Si2805   Si       0.40547    0.78321    0.92529    1.000
    N2806    N        0.40989    0.88109    0.89487    1.000
    N2807    N        0.44704    0.97162    0.94708    1.000
    Si2808   Si       0.43194    0.96547    0.98855    1.000
    N2809    N        0.43133    0.94882    0.88263    1.000
    Si2810   Si       0.42638    0.98033    0.90974    1.000
    Si2811   Si       0.44417    0.90572    0.88125    1.000
    Si2812   Si       0.49087    0.04575    0.05526    1.000
    N2813    N        0.50454    0.10085    0.07115    1.000
    N2814    N        0.47183    0.12644    0.02211    1.000
    Si2815   Si       0.50885    0.10397    0.02595    1.000
    N2816    N        0.50610    0.06044    0.01933    1.000
    Si2817   Si       0.48570    0.12746    0.09865    1.000
    N2818    N        0.51264    0.04268    0.09237    1.000
    N2819    N        0.49623    0.16758    0.08475    1.000
    Si2820   Si       0.48587    0.16288    0.00258    1.000
    N2821    N        0.46637    0.19366    0.02685    1.000
    N2822    N        0.49041    0.22199    0.12045    1.000
    N2823    N        0.48811    0.11515    0.13868    1.000
    N2824    N        0.48548    0.04259    0.23487    1.000
    Si2825   Si       0.48849    0.05806    0.19462    1.000
    Si2826   Si       0.48776    0.12604    0.22262    1.000
    N2827    N        0.51056    0.02967    0.16997    1.000
    N2828    N        0.51326    0.09646    0.19997    1.000
    N2829    N        0.48891    0.25476    0.18485    1.000
    N2830    N        0.51347    0.16075    0.22632    1.000
    Si2831   Si       0.51437    0.24287    0.15145    1.000
    N2832    N        0.50359    0.07491    0.29738    1.000
    N2833    N        0.46308    0.11251    0.25685    1.000
    Si2834   Si       0.46152    0.07864    0.28592    1.000
    N2835    N        0.51530    0.09151    0.36642    1.000
    Si2836   Si       0.51282    0.04300    0.26976    1.000
    N2837    N        0.47974    0.20877    0.26625    1.000
    N2838    N        0.50637    0.21747    0.33754    1.000
    Si2839   Si       0.48409    0.24659    0.28581    1.000
    Si2840   Si       0.46291    0.22565    0.34969    1.000
    N2841    N        0.51413    0.14301    0.33227    1.000
    Si2842   Si       0.51850    0.19535    0.25304    1.000
    Si2843   Si       0.50060    0.13357    0.37260    1.000
    N2844    N        0.47527    0.02947    0.37055    1.000
    Si2845   Si       0.51527    0.04911    0.37713    1.000
    N2846    N        0.48334    0.01599    0.48818    1.000
    N2847    N        0.48360    0.07738    0.46527    1.000
    Si2848   Si       0.48260    0.20978    0.49243    1.000
    Si2849   Si       0.50417    0.19167    0.42551    1.000
    N2850    N        0.47156    0.20423    0.39708    1.000
    N2851    N        0.51762    0.23442    0.43077    1.000
    Si2852   Si       0.47934    0.24565    0.40718    1.000
    N2853    N        0.47597    0.18470    0.45854    1.000
    N2854    N        0.47752    0.02957    0.57773    1.000
    N2855    N        0.49632    0.12627    0.51837    1.000
    N2856    N        0.48810    0.08574    0.61499    1.000
    Si2857   Si       0.48827    0.12928    0.61549    1.000
    Si2858   Si       0.46453    0.10611    0.49229    1.000
    N2859    N        0.47096    0.19211    0.52897    1.000
    Si2860   Si       0.48954    0.15783    0.54783    1.000
    N2861    N        0.46725    0.14726    0.58338    1.000
    Si2862   Si       0.46892    0.23477    0.61463    1.000
    N2863    N        0.50822    0.25456    0.61684    1.000
    N2864    N        0.50578    0.09263    0.69220    1.000
    Si2865   Si       0.48015    0.12715    0.69445    1.000
    Si2866   Si       0.47084    0.03098    0.67460    1.000
    N2867    N        0.51403    0.02758    0.67685    1.000
    N2868    N        0.47124    0.14197    0.65483    1.000
    N2869    N        0.48381    0.15875    0.72396    1.000
    N2870    N        0.47739    0.20767    0.64545    1.000
    N2871    N        0.49480    0.04451    0.84166    1.000
    Si2872   Si       0.50534    0.04427    0.79781    1.000
    N2873    N        0.50814    0.11078    0.85593    1.000
    Si2874   Si       0.48183    0.07826    0.86699    1.000
    N2875    N        0.46813    0.03461    0.77737    1.000
    Si2876   Si       0.51473    0.15771    0.75265    1.000
    N2877    N        0.49716    0.14378    0.78977    1.000
    Si2878   Si       0.49624    0.22325    0.77935    1.000
    N2879    N        0.46964    0.19978    0.80805    1.000
    N2880    N        0.46518    0.23391    0.74863    1.000
    N2881    N        0.51523    0.25379    0.80423    1.000
    N2882    N        0.48379    0.07262    0.91090    1.000
    Si2883   Si       0.48300    0.10815    0.93570    1.000
    Si2884   Si       0.46802    0.03386    0.92877    1.000
    N2885    N        0.49577    0.01594    0.95580    1.000
    N2886    N        0.51197    0.10497    0.96882    1.000
    N2887    N        0.48941    0.23977    0.98208    1.000
    N2888    N        0.46901    0.20889    0.90641    1.000
    N2889    N        0.46933    0.16557    0.96308    1.000
    Si2890   Si       0.48885    0.24207    0.88758    1.000
    Si2891   Si       0.49170    0.17988    0.92894    1.000
    N2892    N        0.50190    0.14125    0.91378    1.000
    Si2893   Si       0.48454    0.34283    0.07666    1.000
    N2894    N        0.47609    0.31162    0.04463    1.000
    N2895    N        0.50224    0.37119    0.04704    1.000
    Si2896   Si       0.50158    0.33530    0.01464    1.000
    Si2897   Si       0.47284    0.39416    0.02440    1.000
    Si2898   Si       0.50346    0.45331    0.03179    1.000
    N2899    N        0.49087    0.42430    0.00012    1.000
    N2900    N        0.46686    0.46910    0.05020    1.000
    N2901    N        0.49844    0.33853    0.16253    1.000
    N2902    N        0.50185    0.36445    0.22492    1.000
    Si2903   Si       0.50680    0.26675    0.22128    1.000
    Si2904   Si       0.45968    0.36204    0.23990    1.000
    Si2905   Si       0.49435    0.48377    0.13688    1.000
    N2906    N        0.46522    0.43786    0.21394    1.000
    Si2907   Si       0.46148    0.42393    0.17123    1.000
    N2908    N        0.49402    0.44188    0.15180    1.000
    N2909    N        0.50107    0.49375    0.23175    1.000
    Si2910   Si       0.45903    0.47838    0.22784    1.000
    Si2911   Si       0.50045    0.30776    0.27217    1.000
    N2912    N        0.46769    0.36307    0.33219    1.000
    N2913    N        0.50882    0.27657    0.30341    1.000
    N2914    N        0.47522    0.27455    0.24979    1.000
    N2915    N        0.46199    0.33114    0.27240    1.000
    N2916    N        0.47190    0.26444    0.36861    1.000
    Si2917   Si       0.51659    0.37980    0.26353    1.000
    N2918    N        0.48202    0.50534    0.30183    1.000
    N2919    N        0.48231    0.40212    0.27604    1.000
    Si2920   Si       0.48737    0.39989    0.31955    1.000
    N2921    N        0.47762    0.43924    0.33591    1.000
    Si2922   Si       0.50038    0.47738    0.33053    1.000
    N2923    N        0.50649    0.49873    0.36611    1.000
    Si2924   Si       0.51512    0.49829    0.27326    1.000
    Si2925   Si       0.48521    0.35006    0.36975    1.000
    N2926    N        0.49948    0.35946    0.48317    1.000
    N2927    N        0.50887    0.31728    0.42499    1.000
    Si2928   Si       0.46614    0.30919    0.42619    1.000
    N2929    N        0.51389    0.28927    0.48702    1.000
    Si2930   Si       0.50736    0.40275    0.47302    1.000
    N2931    N        0.47162    0.41515    0.44971    1.000
    N2932    N        0.46902    0.49380    0.43507    1.000
    N2933    N        0.48794    0.38803    0.38886    1.000
    Si2934   Si       0.50396    0.49016    0.40821    1.000
    N2935    N        0.51463    0.44868    0.40862    1.000
    Si2936   Si       0.47924    0.42555    0.40927    1.000
    Si2937   Si       0.48105    0.28309    0.51560    1.000
    N2938    N        0.50636    0.31738    0.58789    1.000
    N2939    N        0.47146    0.37828    0.55914    1.000
    Si2940   Si       0.46735    0.33498    0.56601    1.000
    N2941    N        0.50620    0.37423    0.61505    1.000
    Si2942   Si       0.51767    0.27384    0.58029    1.000
    N2943    N        0.48963    0.26169    0.55260    1.000
    N2944    N        0.46136    0.31969    0.52606    1.000
    Si2945   Si       0.51184    0.38578    0.57240    1.000
    N2946    N        0.51226    0.42786    0.50866    1.000
    Si2947   Si       0.50159    0.45080    0.54400    1.000
    N2948    N        0.52249    0.49040    0.54808    1.000
    Si2949   Si       0.50319    0.33347    0.63097    1.000
    Si2950   Si       0.47516    0.26927    0.72377    1.000
    N2951    N        0.47007    0.32302    0.65620    1.000
    N2952    N        0.49584    0.26405    0.68350    1.000
    N2953    N        0.48144    0.30516    0.74694    1.000
    Si2954   Si       0.48127    0.40647    0.63176    1.000
    N2955    N        0.48404    0.45248    0.69762    1.000
    Si2956   Si       0.47755    0.48169    0.72811    1.000
    Si2957   Si       0.48397    0.46917    0.65658    1.000
    Si2958   Si       0.49884    0.41072    0.70322    1.000
    N2959    N        0.51436    0.50308    0.72860    1.000
    N2960    N        0.47387    0.40014    0.73992    1.000
    N2961    N        0.47751    0.38962    0.67255    1.000
    N2962    N        0.50627    0.43998    0.63551    1.000
    N2963    N        0.50807    0.50524    0.65240    1.000
    Si2964   Si       0.50286    0.29287    0.81432    1.000
    N2965    N        0.51608    0.30072    0.85501    1.000
    N2966    N        0.46129    0.30354    0.81026    1.000
    N2967    N        0.47589    0.46185    0.76679    1.000
    Si2968   Si       0.49719    0.42291    0.76882    1.000
    Si2969   Si       0.48336    0.47891    0.85290    1.000
    N2970    N        0.50756    0.39855    0.80349    1.000
    N2971    N        0.49097    0.31010    0.97509    1.000
    Si2972   Si       0.48222    0.27296    0.95473    1.000
    N2973    N        0.49382    0.27562    0.91426    1.000
    Si2974   Si       0.49203    0.31248    0.89090    1.000
    N2975    N        0.51589    0.34338    0.91199    1.000
    N2976    N        0.49641    0.40363    0.87783    1.000
    N2977    N        0.48916    0.47932    0.95992    1.000
    Si2978   Si       0.46314    0.42578    0.89642    1.000
    Si2979   Si       0.46554    0.44494    0.97105    1.000
    Si2980   Si       0.50185    0.49236    0.92066    1.000
    N2981    N        0.47751    0.46696    0.89423    1.000
    N2982    N        0.48725    0.59181    0.09977    1.000
    Si2983   Si       0.49456    0.60912    0.06038    1.000
    N2984    N        0.46563    0.59892    0.02788    1.000
    N2985    N        0.46242    0.52979    0.00249    1.000
    Si2986   Si       0.50560    0.65925    0.11039    1.000
    N2987    N        0.49740    0.65094    0.06627    1.000
    N2988    N        0.47253    0.71505    0.06433    1.000
    Si2989   Si       0.50836    0.69050    0.05739    1.000
    Si2990   Si       0.47526    0.55629    0.17831    1.000
    N2991    N        0.50916    0.58399    0.17140    1.000
    N2992    N        0.47178    0.62961    0.23227    1.000
    N2993    N        0.49421    0.51643    0.17018    1.000
    Si2994   Si       0.51560    0.63315    0.23422    1.000
    N2995    N        0.46741    0.67342    0.12372    1.000
    N2996    N        0.47381    0.68668    0.19739    1.000
    Si2997   Si       0.51733    0.69475    0.20219    1.000
    N2998    N        0.46069    0.73209    0.14205    1.000
    N2999    N        0.48573    0.57456    0.27664    1.000
    N3000    N        0.49124    0.56373    0.35727    1.000
    Si3001   Si       0.47665    0.58111    0.32019    1.000
    N3002    N        0.49389    0.61932    0.33213    1.000
    Si3003   Si       0.48471    0.73069    0.33265    1.000
    Si3004   Si       0.50558    0.69010    0.27134    1.000
    N3005    N        0.46180    0.69306    0.26436    1.000
    N3006    N        0.51479    0.70740    0.31010    1.000
    Si3007   Si       0.49399    0.60731    0.37627    1.000
    Si3008   Si       0.47227    0.51781    0.46986    1.000
    N3009    N        0.50210    0.60968    0.45531    1.000
    N3010    N        0.51183    0.52760    0.48292    1.000
    Si3011   Si       0.46303    0.59605    0.44242    1.000
    Si3012   Si       0.51115    0.62503    0.49428    1.000
    N3013    N        0.45844    0.59243    0.40070    1.000
    N3014    N        0.49583    0.71628    0.37324    1.000
    Si3015   Si       0.48549    0.68836    0.40450    1.000
    N3016    N        0.49819    0.64776    0.39800    1.000
    Si3017   Si       0.48584    0.73984    0.46301    1.000
    N3018    N        0.50170    0.70633    0.44219    1.000
    N3019    N        0.49088    0.55607    0.54147    1.000
    Si3020   Si       0.48058    0.59954    0.55165    1.000
    N3021    N        0.47380    0.62334    0.51421    1.000
    N3022    N        0.50928    0.62220    0.57316    1.000
    Si3023   Si       0.51836    0.52864    0.52619    1.000
    N3024    N        0.48632    0.73298    0.50489    1.000
    Si3025   Si       0.48266    0.68974    0.51167    1.000
    N3026    N        0.48807    0.69104    0.55527    1.000
    N3027    N        0.46387    0.75482    0.56417    1.000
    Si3028   Si       0.49978    0.75495    0.54141    1.000
    Si3029   Si       0.51410    0.63546    0.61255    1.000
    Si3030   Si       0.48711    0.59349    0.66618    1.000
    Si3031   Si       0.48425    0.60902    0.72672    1.000
    Si3032   Si       0.47275    0.53046    0.65810    1.000
    N3033    N        0.48911    0.55443    0.69035    1.000
    N3034    N        0.46791    0.56666    0.63439    1.000
    N3035    N        0.48247    0.62899    0.64024    1.000
    N3036    N        0.52009    0.61070    0.69889    1.000
    N3037    N        0.47100    0.71472    0.73347    1.000
    N3038    N        0.49112    0.71112    0.66678    1.000
    Si3039   Si       0.50329    0.72477    0.70681    1.000
    N3040    N        0.47850    0.52238    0.85561    1.000
    Si3041   Si       0.47673    0.60198    0.85735    1.000
    N3042    N        0.50561    0.54835    0.79869    1.000
    Si3043   Si       0.46612    0.55994    0.78909    1.000
    Si3044   Si       0.51389    0.54447    0.84219    1.000
    N3045    N        0.51633    0.58201    0.86256    1.000
    N3046    N        0.46079    0.57899    0.74910    1.000
    N3047    N        0.45917    0.58940    0.82007    1.000
    Si3048   Si       0.48353    0.68327    0.76328    1.000
    Si3049   Si       0.48365    0.67661    0.82396    1.000
    N3050    N        0.48351    0.64481    0.85407    1.000
    N3051    N        0.47954    0.71597    0.84046    1.000
    Si3052   Si       0.50651    0.74807    0.85332    1.000
    N3053    N        0.51276    0.67436    0.79334    1.000
    N3054    N        0.46921    0.64676    0.74702    1.000
    Si3055   Si       0.47185    0.61998    0.99146    1.000
    Si3056   Si       0.50101    0.56611    0.94187    1.000
    N3057    N        0.47127    0.59451    0.95476    1.000
    N3058    N        0.48432    0.53221    0.91802    1.000
    Si3059   Si       0.49767    0.51021    0.98925    1.000
    N3060    N        0.51280    0.63174    0.99203    1.000
    Si3061   Si       0.51594    0.65649    0.88431    1.000
    Si3062   Si       0.50017    0.72325    0.91787    1.000
    N3063    N        0.49752    0.64944    0.92297    1.000
    Si3064   Si       0.46953    0.80355    0.01311    1.000
    N3065    N        0.49938    0.83598    0.10804    1.000
    N3066    N        0.50672    0.82533    0.00591    1.000
    N3067    N        0.51310    0.76428    0.11498    1.000
    N3068    N        0.48201    0.76029    0.00900    1.000
    Si3069   Si       0.46035    0.82287    0.09305    1.000
    Si3070   Si       0.48650    0.91903    0.07755    1.000
    Si3071   Si       0.50037    0.97512    0.03043    1.000
    Si3072   Si       0.46603    0.98561    0.09584    1.000
    Si3073   Si       0.47008    0.91222    0.00598    1.000
    N3074    N        0.46705    0.89472    0.04715    1.000
    N3075    N        0.50956    0.91259    0.11443    1.000
    N3076    N        0.47848    0.00280    0.05484    1.000
    N3077    N        0.47881    0.95708    0.99846    1.000
    N3078    N        0.51778    0.94197    0.05471    1.000
    N3079    N        0.49050    0.87437    0.16899    1.000
    Si3080   Si       0.49545    0.83652    0.19215    1.000
    N3081    N        0.47236    0.83435    0.22794    1.000
    Si3082   Si       0.47540    0.77333    0.13935    1.000
    N3083    N        0.49035    0.79994    0.16894    1.000
    Si3084   Si       0.51357    0.87135    0.13160    1.000
    Si3085   Si       0.49573    0.98759    0.17084    1.000
    N3086    N        0.49756    0.98483    0.12474    1.000
    N3087    N        0.46961    0.90330    0.23361    1.000
    Si3088   Si       0.49000    0.90871    0.19562    1.000
    N3089    N        0.47732    0.94212    0.17143    1.000
    N3090    N        0.47300    0.80584    0.29447    1.000
    Si3091   Si       0.50511    0.80706    0.32681    1.000
    N3092    N        0.49233    0.83205    0.35996    1.000
    Si3093   Si       0.47676    0.79735    0.25185    1.000
    N3094    N        0.50853    0.76646    0.33975    1.000
    Si3095   Si       0.50231    0.92289    0.32381    1.000
    Si3096   Si       0.50987    0.90537    0.25225    1.000
    N3097    N        0.50981    0.93661    0.28339    1.000
    N3098    N        0.46284    0.90686    0.32854    1.000
    N3099    N        0.51245    0.95768    0.35022    1.000
    N3100    N        0.50589    0.00689    0.29331    1.000
    Si3101   Si       0.49281    0.00240    0.33628    1.000
    N3102    N        0.51545    0.84256    0.43992    1.000
    N3103    N        0.50566    0.77599    0.45277    1.000
    Si3104   Si       0.48395    0.81251    0.45089    1.000
    Si3105   Si       0.50034    0.88340    0.43515    1.000
    N3106    N        0.46076    0.82951    0.48603    1.000
    N3107    N        0.47209    0.95518    0.46644    1.000
    N3108    N        0.51758    0.90251    0.47105    1.000
    Si3109   Si       0.50131    0.93792    0.38894    1.000
    N3110    N        0.51000    0.89497    0.39464    1.000
    Si3111   Si       0.51337    0.94517    0.46326    1.000
    N3112    N        0.50093    0.86026    0.53917    1.000
    N3113    N        0.49329    0.86249    0.61399    1.000
    N3114    N        0.49941    0.79892    0.53104    1.000
    Si3115   Si       0.47858    0.87508    0.57360    1.000
    Si3116   Si       0.46478    0.82759    0.52978    1.000
    Si3117   Si       0.45907    0.77312    0.60392    1.000
    N3118    N        0.47934    0.91820    0.57989    1.000
    N3119    N        0.47347    0.96836    0.53844    1.000
    Si3120   Si       0.50409    0.94531    0.56012    1.000
    Si3121   Si       0.45847    0.98232    0.49916    1.000
    N3122    N        0.49572    0.78167    0.62453    1.000
    N3123    N        0.50823    0.76659    0.69996    1.000
    Si3124   Si       0.48266    0.82320    0.62955    1.000
    N3125    N        0.47111    0.82992    0.67239    1.000
    Si3126   Si       0.50433    0.79124    0.73664    1.000
    Si3127   Si       0.50983    0.84152    0.68933    1.000
    N3128    N        0.51032    0.83407    0.73084    1.000
    N3129    N        0.51548    0.88374    0.67568    1.000
    N3130    N        0.46992    0.92201    0.64668    1.000
    Si3131   Si       0.50333    0.89817    0.63765    1.000
    Si3132   Si       0.47453    0.95229    0.67800    1.000
    N3133    N        0.51711    0.95439    0.68517    1.000
    N3134    N        0.51259    0.90574    0.74164    1.000
    N3135    N        0.50126    0.78174    0.82540    1.000
    N3136    N        0.50865    0.86927    0.80173    1.000
    Si3137   Si       0.46838    0.78737    0.79735    1.000
    Si3138   Si       0.50949    0.82867    0.82267    1.000
    N3139    N        0.46407    0.78621    0.75379    1.000
    N3140    N        0.51340    0.85030    0.86177    1.000
    Si3141   Si       0.46541    0.87501    0.80811    1.000
    N3142    N        0.48616    0.96780    0.76863    1.000
    Si3143   Si       0.47752    0.92872    0.75150    1.000
    Si3144   Si       0.47784    0.00690    0.85871    1.000
    N3145    N        0.49803    0.76073    0.89483    1.000
    Si3146   Si       0.49615    0.85429    0.90060    1.000
    N3147    N        0.50008    0.82849    0.93596    1.000
    Si3148   Si       0.47912    0.79499    0.91477    1.000
    Si3149   Si       0.48615    0.84763    0.97341    1.000
    N3150    N        0.49163    0.88947    0.97677    1.000
    Si3151   Si       0.48813    0.97306    0.95798    1.000
    Si3152   Si       0.50499    0.90267    0.93893    1.000
    N3153    N        0.50839    0.98410    0.87741    1.000
    N3154    N        0.47538    0.89355    0.90863    1.000
    N3155    N        0.51537    0.94481    0.93401    1.000
    Si3156   Si       0.53682    0.07849    0.08855    1.000
    N3157    N        0.54982    0.12509    0.02921    1.000
    N3158    N        0.57541    0.06767    0.07091    1.000
    N3159    N        0.55907    0.16905    0.09989    1.000
    Si3160   Si       0.56563    0.22444    0.03837    1.000
    N3161    N        0.53563    0.22481    0.06720    1.000
    Si3162   Si       0.52298    0.19987    0.09915    1.000
    Si3163   Si       0.57160    0.15495    0.06085    1.000
    Si3164   Si       0.56038    0.15341    0.99984    1.000
    N3165    N        0.55558    0.24444    0.99954    1.000
    N3166    N        0.56802    0.01984    0.13130    1.000
    Si3167   Si       0.52701    0.11154    0.15976    1.000
    N3168    N        0.54675    0.08823    0.12770    1.000
    Si3169   Si       0.55240    0.08483    0.21852    1.000
    N3170    N        0.56975    0.12267    0.23226    1.000
    Si3171   Si       0.52431    0.02120    0.12806    1.000
    Si3172   Si       0.57720    0.06178    0.14221    1.000
    N3173    N        0.55000    0.14788    0.16771    1.000
    Si3174   Si       0.57384    0.25189    0.14736    1.000
    N3175    N        0.54830    0.21586    0.14757    1.000
    Si3176   Si       0.56930    0.17673    0.14268    1.000
    Si3177   Si       0.57349    0.23289    0.22154    1.000
    Si3178   Si       0.55393    0.15649    0.20951    1.000
    N3179    N        0.53232    0.23362    0.23501    1.000
    Si3180   Si       0.52452    0.10033    0.32425    1.000
    N3181    N        0.56823    0.09718    0.31060    1.000
    N3182    N        0.53494    0.01794    0.35435    1.000
    N3183    N        0.54861    0.04879    0.24437    1.000
    N3184    N        0.54524    0.19280    0.28851    1.000
    Si3185   Si       0.53266    0.18363    0.32906    1.000
    N3186    N        0.56825    0.18011    0.35654    1.000
    N3187    N        0.56899    0.24733    0.32622    1.000
    N3188    N        0.54014    0.10816    0.46119    1.000
    N3189    N        0.54517    0.03859    0.47241    1.000
    N3190    N        0.53629    0.05000    0.41412    1.000
    Si3191   Si       0.57175    0.03671    0.43744    1.000
    Si3192   Si       0.52312    0.07012    0.45079    1.000
    Si3193   Si       0.56363    0.16774    0.39805    1.000
    N3194    N        0.52088    0.15867    0.40106    1.000
    Si3195   Si       0.53148    0.25266    0.46954    1.000
    N3196    N        0.57253    0.20065    0.42467    1.000
    Si3197   Si       0.55932    0.24251    0.41366    1.000
    N3198    N        0.54509    0.05157    0.58988    1.000
    Si3199   Si       0.56279    0.05442    0.54959    1.000
    N3200    N        0.55436    0.09291    0.53107    1.000
    N3201    N        0.53792    0.02061    0.53839    1.000
    Si3202   Si       0.53775    0.12249    0.50352    1.000
    N3203    N        0.53242    0.12899    0.61088    1.000
    Si3204   Si       0.51948    0.01691    0.57792    1.000
    Si3205   Si       0.52470    0.01133    0.49847    1.000
    Si3206   Si       0.54662    0.16852    0.60007    1.000
    Si3207   Si       0.54361    0.19788    0.52692    1.000
    N3208    N        0.52673    0.17799    0.56248    1.000
    N3209    N        0.55486    0.16254    0.50565    1.000
    N3210    N        0.57424    0.22170    0.54369    1.000
    N3211    N        0.52301    0.22187    0.49631    1.000
    Si3212   Si       0.53444    0.08423    0.61670    1.000
    Si3213   Si       0.53644    0.06381    0.68692    1.000
    N3214    N        0.55760    0.05831    0.72651    1.000
    N3215    N        0.55964    0.07429    0.65181    1.000
    N3216    N        0.54432    0.19827    0.63187    1.000
    N3217    N        0.55878    0.24935    0.67023    1.000
    N3218    N        0.54852    0.13313    0.74234    1.000
    N3219    N        0.56953    0.17837    0.69299    1.000
    Si3220   Si       0.51785    0.22995    0.65185    1.000
    N3221    N        0.53560    0.01801    0.78212    1.000
    Si3222   Si       0.56930    0.02636    0.75319    1.000
    Si3223   Si       0.55269    0.09126    0.75407    1.000
    N3224    N        0.56064    0.12974    0.81920    1.000
    N3225    N        0.52565    0.08139    0.78625    1.000
    N3226    N        0.57796    0.06198    0.84069    1.000
    Si3227   Si       0.51981    0.11530    0.81293    1.000
    Si3228   Si       0.57411    0.16619    0.83813    1.000
    Si3229   Si       0.56656    0.20841    0.77254    1.000
    Si3230   Si       0.54603    0.24012    0.83178    1.000
    N3231    N        0.56403    0.20218    0.81735    1.000
    N3232    N        0.52697    0.19958    0.75899    1.000
    N3233    N        0.52733    0.23044    0.87138    1.000
    N3234    N        0.57414    0.24829    0.76046    1.000
    Si3235   Si       0.55258    0.09772    0.95418    1.000
    N3236    N        0.55494    0.09812    0.90932    1.000
    N3237    N        0.56735    0.02924    0.90214    1.000
    N3238    N        0.55400    0.05421    0.96653    1.000
    Si3239   Si       0.53211    0.12825    0.88741    1.000
    Si3240   Si       0.52134    0.03327    0.98699    1.000
    N3241    N        0.57967    0.13147    0.96822    1.000
    Si3242   Si       0.57741    0.06764    0.88557    1.000
    Si3243   Si       0.57684    0.02327    0.94294    1.000
    N3244    N        0.53098    0.20272    0.93370    1.000
    Si3245   Si       0.52876    0.21931    0.97555    1.000
    N3246    N        0.55513    0.16361    0.87802    1.000
    Si3247   Si       0.55344    0.20264    0.89389    1.000
    N3248    N        0.52510    0.17971    0.99648    1.000
    N3249    N        0.53978    0.31232    0.02790    1.000
    Si3250   Si       0.55210    0.32432    0.06880    1.000
    N3251    N        0.56654    0.36550    0.06474    1.000
    Si3252   Si       0.56155    0.28756    0.99971    1.000
    N3253    N        0.52127    0.32783    0.09859    1.000
    Si3254   Si       0.53896    0.39528    0.04771    1.000
    N3255    N        0.55476    0.41473    0.01057    1.000
    Si3256   Si       0.54731    0.45775    0.08912    1.000
    N3257    N        0.52541    0.49116    0.10767    1.000
    N3258    N        0.52290    0.43133    0.06453    1.000
    N3259    N        0.52235    0.49070    0.02063    1.000
    Si3260   Si       0.56022    0.50676    0.03499    1.000
    N3261    N        0.53300    0.30160    0.23628    1.000
    N3262    N        0.54033    0.27655    0.14132    1.000
    N3263    N        0.55950    0.33692    0.16673    1.000
    Si3264   Si       0.53040    0.31875    0.13894    1.000
    Si3265   Si       0.52893    0.35898    0.19039    1.000
    Si3266   Si       0.52701    0.50497    0.19707    1.000
    N3267    N        0.54595    0.39914    0.18643    1.000
    Si3268   Si       0.53492    0.43388    0.16094    1.000
    N3269    N        0.55870    0.43570    0.12414    1.000
    N3270    N        0.54846    0.47086    0.17809    1.000
    Si3271   Si       0.57222    0.40112    0.22369    1.000
    Si3272   Si       0.55182    0.37290    0.35009    1.000
    Si3273   Si       0.55976    0.32663    0.25846    1.000
    N3274    N        0.52798    0.34337    0.28201    1.000
    N3275    N        0.52960    0.33937    0.36433    1.000
    Si3276   Si       0.52675    0.25736    0.33913    1.000
    N3277    N        0.53201    0.40032    0.32343    1.000
    N3278    N        0.54812    0.41151    0.25816    1.000
    Si3279   Si       0.55255    0.42989    0.29608    1.000
    N3280    N        0.53184    0.46735    0.30128    1.000
    N3281    N        0.54432    0.27119    0.37981    1.000
    Si3282   Si       0.54307    0.31203    0.39698    1.000
    N3283    N        0.56241    0.34046    0.47737    1.000
    N3284    N        0.56660    0.26819    0.44923    1.000
    Si3285   Si       0.57407    0.38056    0.46322    1.000
    Si3286   Si       0.52201    0.32576    0.46538    1.000
    N3287    N        0.56560    0.39520    0.38599    1.000
    N3288    N        0.56372    0.48586    0.46567    1.000
    N3289    N        0.54188    0.40434    0.44724    1.000
    Si3290   Si       0.55169    0.42688    0.41210    1.000
    Si3291   Si       0.54959    0.32508    0.57395    1.000
    N3292    N        0.55773    0.28327    0.56732    1.000
    N3293    N        0.53785    0.36046    0.55070    1.000
    Si3294   Si       0.56422    0.36009    0.51862    1.000
    Si3295   Si       0.54177    0.44056    0.61037    1.000
    N3296    N        0.55673    0.48129    0.61130    1.000
    N3297    N        0.52114    0.42731    0.57442    1.000
    Si3298   Si       0.53478    0.28511    0.68011    1.000
    N3299    N        0.54491    0.29801    0.72026    1.000
    N3300    N        0.53941    0.31851    0.65208    1.000
    N3301    N        0.57456    0.41826    0.62585    1.000
    N3302    N        0.57830    0.48197    0.72206    1.000
    N3303    N        0.54134    0.40693    0.69281    1.000
    Si3304   Si       0.55544    0.40059    0.73446    1.000
    Si3305   Si       0.53364    0.36759    0.78953    1.000
    Si3306   Si       0.55761    0.30318    0.86465    1.000
    N3307    N        0.57533    0.38130    0.79732    1.000
    N3308    N        0.52491    0.32354    0.79374    1.000
    Si3309   Si       0.52015    0.32261    0.74791    1.000
    N3310    N        0.57602    0.26939    0.84045    1.000
    N3311    N        0.53195    0.36408    0.74581    1.000
    Si3312   Si       0.55399    0.48132    0.82719    1.000
    N3313    N        0.55683    0.49833    0.78519    1.000
    N3314    N        0.55563    0.39500    0.86248    1.000
    N3315    N        0.53694    0.43498    0.75452    1.000
    Si3316   Si       0.54567    0.47837    0.74947    1.000
    N3317    N        0.51866    0.45830    0.83859    1.000
    Si3318   Si       0.52042    0.41463    0.84274    1.000
    N3319    N        0.55742    0.30800    0.96141    1.000
    Si3320   Si       0.52163    0.33162    0.95295    1.000
    N3321    N        0.57393    0.28909    0.90073    1.000
    N3322    N        0.52282    0.36311    0.98482    1.000
    N3323    N        0.53486    0.41265    0.93758    1.000
    N3324    N        0.54297    0.48521    0.91248    1.000
    Si3325   Si       0.52474    0.40438    0.97924    1.000
    N3326    N        0.57392    0.46352    0.96827    1.000
    Si3327   Si       0.55990    0.44839    0.92883    1.000
    Si3328   Si       0.53122    0.38462    0.90397    1.000
    N3329    N        0.53406    0.59736    0.04965    1.000
    Si3330   Si       0.56257    0.57659    0.07511    1.000
    Si3331   Si       0.54758    0.62229    0.01656    1.000
    N3332    N        0.56162    0.53621    0.06739    1.000
    Si3333   Si       0.55537    0.52353    0.10887    1.000
    N3334    N        0.54867    0.56454    0.11780    1.000
    N3335    N        0.57292    0.65329    0.03444    1.000
    N3336    N        0.53036    0.69359    0.09598    1.000
    N3337    N        0.52889    0.70666    0.02413    1.000
    Si3338   Si       0.57257    0.69535    0.02202    1.000
    Si3339   Si       0.52064    0.74056    0.99689    1.000
    Si3340   Si       0.57655    0.69586    0.09298    1.000
    N3341    N        0.55674    0.53648    0.19905    1.000
    Si3342   Si       0.54591    0.57746    0.19714    1.000
    N3343    N        0.53400    0.59553    0.23586    1.000
    N3344    N        0.57436    0.60545    0.17922    1.000
    Si3345   Si       0.51866    0.59292    0.13049    1.000
    N3346    N        0.57554    0.72634    0.12426    1.000
    N3347    N        0.53236    0.63566    0.13361    1.000
    N3348    N        0.53459    0.65469    0.20169    1.000
    Si3349   Si       0.55834    0.64426    0.16744    1.000
    Si3350   Si       0.53000    0.72619    0.12687    1.000
    N3351    N        0.53231    0.71645    0.16849    1.000
    N3352    N        0.52753    0.71192    0.24031    1.000
    N3353    N        0.54186    0.53078    0.27190    1.000
    N3354    N        0.54899    0.59437    0.30113    1.000
    Si3355   Si       0.52903    0.57155    0.27135    1.000
    Si3356   Si       0.52862    0.63131    0.31111    1.000
    N3357    N        0.55614    0.65687    0.33539    1.000
    Si3358   Si       0.55474    0.69651    0.31934    1.000
    N3359    N        0.56607    0.72230    0.35306    1.000
    Si3360   Si       0.56885    0.72538    0.25231    1.000
    N3361    N        0.52011    0.65063    0.27301    1.000
    N3362    N        0.56432    0.54449    0.36542    1.000
    Si3363   Si       0.52187    0.54010    0.37590    1.000
    N3364    N        0.53395    0.59702    0.39351    1.000
    Si3365   Si       0.54513    0.52448    0.45770    1.000
    N3366    N        0.57391    0.55529    0.47305    1.000
    N3367    N        0.52702    0.52609    0.41890    1.000
    Si3368   Si       0.57603    0.58340    0.38233    1.000
    Si3369   Si       0.52737    0.62819    0.42367    1.000
    N3370    N        0.55610    0.75687    0.40354    1.000
    Si3371   Si       0.52980    0.74194    0.37073    1.000
    N3372    N        0.55904    0.72748    0.46950    1.000
    Si3373   Si       0.53767    0.68995    0.46228    1.000
    N3374    N        0.55605    0.65616    0.43886    1.000
    N3375    N        0.51809    0.66915    0.49515    1.000
    N3376    N        0.55125    0.54351    0.60598    1.000
    N3377    N        0.55811    0.54209    0.53781    1.000
    N3378    N        0.54317    0.60632    0.51553    1.000
    Si3379   Si       0.55003    0.62469    0.55544    1.000
    Si3380   Si       0.57185    0.58209    0.61165    1.000
    Si3381   Si       0.57380    0.57381    0.51206    1.000
    Si3382   Si       0.55568    0.51208    0.57373    1.000
    Si3383   Si       0.52937    0.69542    0.57056    1.000
    N3384    N        0.55826    0.66609    0.55352    1.000
    N3385    N        0.53830    0.73728    0.55881    1.000
    N3386    N        0.52245    0.67823    0.61033    1.000
    N3387    N        0.54556    0.61016    0.63056    1.000
    N3388    N        0.55845    0.54370    0.67452    1.000
    Si3389   Si       0.55671    0.60389    0.73054    1.000
    Si3390   Si       0.55061    0.62607    0.67071    1.000
    Si3391   Si       0.52664    0.53838    0.70550    1.000
    Si3392   Si       0.54974    0.51517    0.64078    1.000
    N3393    N        0.54273    0.56064    0.74052    1.000
    N3394    N        0.54366    0.66897    0.67308    1.000
    Si3395   Si       0.52808    0.70127    0.64710    1.000
    Si3396   Si       0.56277    0.67599    0.71045    1.000
    N3397    N        0.55208    0.64778    0.74115    1.000
    N3398    N        0.53924    0.71030    0.72413    1.000
    N3399    N        0.54871    0.74101    0.64734    1.000
    Si3400   Si       0.54584    0.54320    0.78136    1.000
    N3401    N        0.55088    0.51891    0.84994    1.000
    N3402    N        0.57300    0.56640    0.80691    1.000
    Si3403   Si       0.55482    0.66423    0.78142    1.000
    N3404    N        0.55048    0.74143    0.84244    1.000
    Si3405   Si       0.56359    0.73665    0.75022    1.000
    N3406    N        0.57405    0.70214    0.77773    1.000
    N3407    N        0.57717    0.63896    0.80742    1.000
    N3408    N        0.53305    0.59208    0.92930    1.000
    Si3409   Si       0.54888    0.59468    0.88751    1.000
    Si3410   Si       0.56156    0.55708    0.97776    1.000
    Si3411   Si       0.57100    0.51651    0.89859    1.000
    N3412    N        0.52027    0.54348    0.97375    1.000
    N3413    N        0.56849    0.60051    0.98637    1.000
    Si3414   Si       0.52514    0.63114    0.95067    1.000
    Si3415   Si       0.56292    0.71318    0.87361    1.000
    Si3416   Si       0.56216    0.70341    0.95059    1.000
    N3417    N        0.52496    0.72479    0.95553    1.000
    N3418    N        0.52250    0.69945    0.88776    1.000
    N3419    N        0.55962    0.66068    0.95303    1.000
    N3420    N        0.55376    0.63581    0.87336    1.000
    Si3421   Si       0.54446    0.81315    0.02418    1.000
    Si3422   Si       0.53097    0.80402    0.10719    1.000
    N3423    N        0.54556    0.80632    0.06642    1.000
    N3424    N        0.55027    0.77289    0.00721    1.000
    N3425    N        0.56957    0.84464    0.00927    1.000
    Si3426   Si       0.55854    0.93698    0.06749    1.000
    N3427    N        0.56188    0.95677    0.10545    1.000
    N3428    N        0.53139    0.00056    0.01484    1.000
    Si3429   Si       0.57169    0.98733    0.00431    1.000
    N3430    N        0.57355    0.89629    0.07192    1.000
    Si3431   Si       0.56481    0.85960    0.23055    1.000
    N3432    N        0.55511    0.86262    0.13209    1.000
    N3433    N        0.53968    0.84236    0.19710    1.000
    Si3434   Si       0.56699    0.83150    0.16441    1.000
    N3435    N        0.56597    0.79831    0.13641    1.000
    Si3436   Si       0.52438    0.95007    0.13153    1.000
    Si3437   Si       0.55550    0.95429    0.20928    1.000
    N3438    N        0.52729    0.91967    0.21490    1.000
    N3439    N        0.54877    0.98058    0.24301    1.000
    N3440    N        0.53792    0.96722    0.17017    1.000
    Si3441   Si       0.54868    0.86272    0.30236    1.000
    N3442    N        0.53896    0.82152    0.30461    1.000
    Si3443   Si       0.55031    0.79541    0.27145    1.000
    N3444    N        0.53708    0.87454    0.26213    1.000
    Si3445   Si       0.52287    0.86403    0.36692    1.000
    N3446    N        0.51825    0.78564    0.24566    1.000
    N3447    N        0.52482    0.88599    0.32971    1.000
    Si3448   Si       0.55145    0.97904    0.34955    1.000
    N3449    N        0.56552    0.97309    0.30966    1.000
    Si3450   Si       0.53150    0.97404    0.28084    1.000
    N3451    N        0.56457    0.85488    0.37396    1.000
    N3452    N        0.57138    0.79649    0.45966    1.000
    Si3453   Si       0.55454    0.83787    0.46299    1.000
    Si3454   Si       0.54693    0.76206    0.44584    1.000
    Si3455   Si       0.56874    0.95976    0.42290    1.000
    N3456    N        0.52449    0.95518    0.42171    1.000
    N3457    N        0.53817    0.97173    0.48827    1.000
    N3458    N        0.57643    0.95675    0.37782    1.000
    N3459    N        0.55678    0.82085    0.56722    1.000
    Si3460   Si       0.53167    0.82946    0.53401    1.000
    N3461    N        0.55038    0.85161    0.50405    1.000
    N3462    N        0.53533    0.91908    0.54113    1.000
    N3463    N        0.52410    0.97480    0.58854    1.000
    Si3464   Si       0.55417    0.95793    0.61418    1.000
    Si3465   Si       0.52463    0.88781    0.51292    1.000
    Si3466   Si       0.57530    0.91547    0.55449    1.000
    N3467    N        0.53284    0.81667    0.66243    1.000
    Si3468   Si       0.52128    0.77410    0.65821    1.000
    Si3469   Si       0.57394    0.82745    0.66001    1.000
    Si3470   Si       0.52973    0.91528    0.70167    1.000
    N3471    N        0.56726    0.98424    0.65157    1.000
    N3472    N        0.57260    0.91629    0.71364    1.000
    N3473    N        0.54340    0.91638    0.62409    1.000
    Si3474   Si       0.53934    0.99264    0.68586    1.000
    N3475    N        0.55382    0.99055    0.72824    1.000
    Si3476   Si       0.54501    0.77321    0.80874    1.000
    N3477    N        0.54882    0.81659    0.80668    1.000
    N3478    N        0.56627    0.86739    0.75989    1.000
    N3479    N        0.53051    0.76586    0.76235    1.000
    Si3480   Si       0.52253    0.86578    0.75930    1.000
    N3481    N        0.57182    0.87701    0.82800    1.000
    Si3482   Si       0.53064    0.88371    0.83869    1.000
    Si3483   Si       0.53019    0.97780    0.76474    1.000
    N3484    N        0.53103    0.92528    0.84853    1.000
    N3485    N        0.55471    0.94701    0.78397    1.000
    Si3486   Si       0.56150    0.94949    0.82744    1.000
    N3487    N        0.57106    0.99042    0.83932    1.000
    Si3488   Si       0.57332    0.91447    0.76048    1.000
    N3489    N        0.56661    0.98635    0.96122    1.000
    N3490    N        0.53667    0.88409    0.91716    1.000
    Si3491   Si       0.52194    0.94352    0.88868    1.000
    N3492    N        0.56463    0.95988    0.89708    1.000
    Si3493   Si       0.55820    0.95110    0.94013    1.000
    Si3494   Si       0.55198    0.99779    0.87836    1.000
    Si3495   Si       0.57926    0.88535    0.92574    1.000
    Si3496   Si       0.61103    0.04302    0.08650    1.000
    N3497    N        0.60986    0.08633    0.00882    1.000
    Si3498   Si       0.58640    0.09738    0.04201    1.000
    Si3499   Si       0.63121    0.04949    0.01967    1.000
    N3500    N        0.60632    0.12899    0.06371    1.000
    N3501    N        0.61197    0.00870    0.01272    1.000
    Si3502   Si       0.62344    0.20127    0.03289    1.000
    N3503    N        0.60473    0.23492    0.05399    1.000
    N3504    N        0.58256    0.18458    0.02884    1.000
    N3505    N        0.61739    0.05873    0.12594    1.000
    N3506    N        0.61703    0.07769    0.24129    1.000
    Si3507   Si       0.61425    0.05761    0.20334    1.000
    Si3508   Si       0.61116    0.12157    0.24269    1.000
    N3509    N        0.60068    0.01742    0.20433    1.000
    N3510    N        0.57819    0.07565    0.18388    1.000
    Si3511   Si       0.57511    0.01649    0.23868    1.000
    N3512    N        0.58591    0.25835    0.18823    1.000
    N3513    N        0.57537    0.19164    0.21181    1.000
    N3514    N        0.61080    0.24682    0.12605    1.000
    N3515    N        0.61244    0.18173    0.14975    1.000
    Si3516   Si       0.63740    0.15167    0.16895    1.000
    Si3517   Si       0.60978    0.10628    0.31212    1.000
    N3518    N        0.61938    0.12855    0.34928    1.000
    Si3519   Si       0.63490    0.05010    0.27016    1.000
    N3520    N        0.60696    0.01619    0.26963    1.000
    N3521    N        0.61726    0.13804    0.28128    1.000
    N3522    N        0.61039    0.19580    0.30653    1.000
    Si3523   Si       0.61360    0.17500    0.34673    1.000
    N3524    N        0.59277    0.24521    0.25827    1.000
    Si3525   Si       0.57941    0.22049    0.29339    1.000
    N3526    N        0.59805    0.07177    0.43578    1.000
    N3527    N        0.60242    0.12675    0.47770    1.000
    Si3528   Si       0.58011    0.10960    0.44578    1.000
    N3529    N        0.58387    0.13195    0.40964    1.000
    Si3530   Si       0.62382    0.13204    0.39160    1.000
    N3531    N        0.60324    0.24366    0.39443    1.000
    Si3532   Si       0.61906    0.20550    0.42207    1.000
    Si3533   Si       0.59840    0.16664    0.49497    1.000
    N3534    N        0.62578    0.17680    0.38960    1.000
    N3535    N        0.62518    0.18888    0.46463    1.000
    N3536    N        0.60528    0.04620    0.54966    1.000
    N3537    N        0.60791    0.09685    0.60564    1.000
    Si3538   Si       0.62774    0.07756    0.57021    1.000
    N3539    N        0.62731    0.10614    0.53636    1.000
    Si3540   Si       0.62923    0.01140    0.53436    1.000
    Si3541   Si       0.63534    0.10579    0.49533    1.000
    Si3542   Si       0.61838    0.13911    0.60675    1.000
    N3543    N        0.62061    0.17612    0.53165    1.000
    N3544    N        0.62171    0.23673    0.58212    1.000
    Si3545   Si       0.60402    0.19863    0.56571    1.000
    N3546    N        0.59049    0.16699    0.59289    1.000
    Si3547   Si       0.59262    0.25908    0.55541    1.000
    N3548    N        0.61957    0.03272    0.62641    1.000
    N3549    N        0.62668    0.08158    0.67480    1.000
    Si3550   Si       0.59940    0.06964    0.63815    1.000
    N3551    N        0.62735    0.00799    0.69016    1.000
    N3552    N        0.61462    0.22048    0.66070    1.000
    Si3553   Si       0.58347    0.15592    0.72664    1.000
    N3554    N        0.62166    0.13610    0.72212    1.000
    N3555    N        0.63256    0.14933    0.64909    1.000
    Si3556   Si       0.57395    0.20726    0.66396    1.000
    N3557    N        0.59187    0.09195    0.77329    1.000
    N3558    N        0.60416    0.02322    0.78181    1.000
    Si3559   Si       0.58914    0.09657    0.81423    1.000
    N3560    N        0.62766    0.10331    0.83407    1.000
    Si3561   Si       0.59555    0.02337    0.82483    1.000
    Si3562   Si       0.62822    0.10207    0.75207    1.000
    N3563    N        0.63288    0.02657    0.84710    1.000
    N3564    N        0.61808    0.16845    0.83606    1.000
    N3565    N        0.59779    0.18158    0.75910    1.000
    Si3566   Si       0.62961    0.20419    0.86038    1.000
    Si3567   Si       0.61957    0.11931    0.98163    1.000
    N3568    N        0.61963    0.07514    0.89383    1.000
    N3569    N        0.61878    0.03315    0.94960    1.000
    N3570    N        0.59348    0.21846    0.88288    1.000
    N3571    N        0.60318    0.29655    0.01136    1.000
    Si3572   Si       0.61369    0.31308    0.04907    1.000
    N3573    N        0.58581    0.29988    0.08191    1.000
    Si3574   Si       0.60629    0.37591    0.08033    1.000
    Si3575   Si       0.61185    0.26293    0.08548    1.000
    N3576    N        0.63369    0.34844    0.06444    1.000
    N3577    N        0.60605    0.41943    0.08156    1.000
    Si3578   Si       0.61439    0.45575    0.05862    1.000
    N3579    N        0.62377    0.45319    0.01639    1.000
    N3580    N        0.57525    0.47365    0.05871    1.000
    N3581    N        0.60286    0.37321    0.12313    1.000
    N3582    N        0.62856    0.30466    0.22508    1.000
    Si3583   Si       0.60222    0.34621    0.15728    1.000
    N3584    N        0.61951    0.37273    0.18815    1.000
    Si3585   Si       0.62478    0.27993    0.18838    1.000
    Si3586   Si       0.62115    0.34800    0.22547    1.000
    N3587    N        0.62804    0.31175    0.15911    1.000
    N3588    N        0.57926    0.35768    0.23587    1.000
    Si3589   Si       0.59045    0.47283    0.16551    1.000
    Si3590   Si       0.63109    0.41469    0.19263    1.000
    Si3591   Si       0.59736    0.41835    0.12277    1.000
    N3592    N        0.58972    0.50580    0.13482    1.000
    N3593    N        0.60956    0.49360    0.19811    1.000
    Si3594   Si       0.62081    0.47016    0.23360    1.000
    N3595    N        0.61403    0.43527    0.15934    1.000
    N3596    N        0.60771    0.42814    0.22622    1.000
    N3597    N        0.59166    0.36505    0.33166    1.000
    Si3598   Si       0.60929    0.32639    0.31851    1.000
    N3599    N        0.60359    0.30133    0.35412    1.000
    Si3600   Si       0.61694    0.28165    0.26106    1.000
    N3601    N        0.59067    0.30997    0.28439    1.000
    Si3602   Si       0.58464    0.26447    0.36216    1.000
    N3603    N        0.60041    0.48610    0.26888    1.000
    Si3604   Si       0.61554    0.40053    0.33075    1.000
    N3605    N        0.60231    0.48500    0.34400    1.000
    N3606    N        0.59415    0.43003    0.30762    1.000
    Si3607   Si       0.61413    0.46947    0.30628    1.000
    N3608    N        0.62247    0.41912    0.37021    1.000
    N3609    N        0.62430    0.30872    0.47103    1.000
    Si3610   Si       0.61786    0.32123    0.39139    1.000
    Si3611   Si       0.58527    0.30678    0.45693    1.000
    N3612    N        0.58036    0.32328    0.41462    1.000
    N3613    N        0.62883    0.45343    0.46444    1.000
    Si3614   Si       0.60734    0.39124    0.39728    1.000
    N3615    N        0.60730    0.39123    0.44056    1.000
    N3616    N        0.58309    0.45641    0.40843    1.000
    Si3617   Si       0.59950    0.48008    0.44450    1.000
    Si3618   Si       0.61289    0.46105    0.37823    1.000
    N3619    N        0.59765    0.33675    0.53605    1.000
    Si3620   Si       0.61392    0.34970    0.57382    1.000
    N3621    N        0.61894    0.27687    0.52867    1.000
    Si3622   Si       0.62651    0.31444    0.51285    1.000
    N3623    N        0.58004    0.34028    0.60087    1.000
    Si3624   Si       0.62957    0.49154    0.54851    1.000
    N3625    N        0.61745    0.39258    0.56863    1.000
    Si3626   Si       0.61691    0.41645    0.60593    1.000
    Si3627   Si       0.62005    0.40989    0.52698    1.000
    N3628    N        0.62838    0.45566    0.60697    1.000
    N3629    N        0.62570    0.45093    0.53382    1.000
    Si3630   Si       0.60019    0.48705    0.61467    1.000
    N3631    N        0.58261    0.39671    0.50498    1.000
    N3632    N        0.59871    0.50493    0.57427    1.000
    Si3633   Si       0.57939    0.33155    0.64153    1.000
    N3634    N        0.61199    0.27127    0.71009    1.000
    N3635    N        0.60777    0.29979    0.64634    1.000
    N3636    N        0.59663    0.36507    0.66285    1.000
    Si3637   Si       0.58095    0.28443    0.73965    1.000
    Si3638   Si       0.60283    0.26319    0.66859    1.000
    N3639    N        0.60696    0.43120    0.68644    1.000
    Si3640   Si       0.62779    0.40700    0.71737    1.000
    N3641    N        0.59824    0.49923    0.65560    1.000
    Si3642   Si       0.60911    0.47475    0.69352    1.000
    N3643    N        0.59493    0.38342    0.73331    1.000
    Si3644   Si       0.57762    0.40456    0.66662    1.000
    Si3645   Si       0.59372    0.30120    0.81296    1.000
    N3646    N        0.58937    0.31494    0.77056    1.000
    Si3647   Si       0.59826    0.35697    0.76827    1.000
    Si3648   Si       0.58389    0.37225    0.83937    1.000
    N3649    N        0.58349    0.33098    0.84468    1.000
    N3650    N        0.61946    0.39297    0.85452    1.000
    Si3651   Si       0.62076    0.48695    0.85056    1.000
    N3652    N        0.58802    0.45892    0.84388    1.000
    Si3653   Si       0.58930    0.42332    0.86653    1.000
    Si3654   Si       0.59030    0.31481    0.93060    1.000
    N3655    N        0.62773    0.29886    0.94479    1.000
    N3656    N        0.58514    0.35646    0.92251    1.000
    Si3657   Si       0.59746    0.26019    0.87917    1.000
    N3658    N        0.61003    0.40217    0.97299    1.000
    Si3659   Si       0.59187    0.50319    0.96887    1.000
    Si3660   Si       0.61075    0.39138    0.92986    1.000
    N3661    N        0.61215    0.50314    0.89070    1.000
    N3662    N        0.59257    0.42654    0.90944    1.000
    N3663    N        0.63323    0.49685    0.96016    1.000
    Si3664   Si       0.59091    0.43258    0.99587    1.000
    N3665    N        0.60059    0.59981    0.07014    1.000
    N3666    N        0.58020    0.52647    0.00246    1.000
    N3667    N        0.63567    0.54281    0.09864    1.000
    Si3668   Si       0.60746    0.64120    0.05876    1.000
    N3669    N        0.60705    0.66357    0.09747    1.000
    N3670    N        0.59275    0.71347    0.05491    1.000
    Si3671   Si       0.62457    0.74382    0.06056    1.000
    Si3672   Si       0.62542    0.52865    0.13892    1.000
    Si3673   Si       0.60040    0.53545    0.20207    1.000
    N3674    N        0.62057    0.55688    0.17135    1.000
    Si3675   Si       0.61891    0.60000    0.17773    1.000
    N3676    N        0.60882    0.54896    0.24288    1.000
    Si3677   Si       0.62621    0.66288    0.13690    1.000
    N3678    N        0.58694    0.72046    0.21351    1.000
    Si3679   Si       0.57732    0.71602    0.16910    1.000
    N3680    N        0.59047    0.67357    0.16351    1.000
    Si3681   Si       0.62419    0.74132    0.20484    1.000
    N3682    N        0.61219    0.75135    0.16516    1.000
    N3683    N        0.59836    0.54479    0.30875    1.000
    Si3684   Si       0.60144    0.52834    0.34700    1.000
    Si3685   Si       0.59178    0.58880    0.31149    1.000
    N3686    N        0.59702    0.60335    0.35122    1.000
    N3687    N        0.62293    0.60314    0.28631    1.000
    Si3688   Si       0.58564    0.52653    0.27147    1.000
    Si3689   Si       0.62381    0.69230    0.29636    1.000
    N3690    N        0.62200    0.67321    0.33476    1.000
    Si3691   Si       0.59279    0.64712    0.35481    1.000
    N3692    N        0.58251    0.69716    0.28517    1.000
    Si3693   Si       0.60614    0.55978    0.44460    1.000
    N3694    N        0.61263    0.51920    0.42923    1.000
    N3695    N        0.59551    0.59490    0.42015    1.000
    N3696    N        0.63611    0.53983    0.37131    1.000
    Si3697   Si       0.63575    0.68596    0.37598    1.000
    Si3698   Si       0.59181    0.74558    0.37892    1.000
    Si3699   Si       0.59897    0.73282    0.49014    1.000
    N3700    N        0.61828    0.64065    0.46571    1.000
    Si3701   Si       0.59533    0.63778    0.42930    1.000
    N3702    N        0.60706    0.65741    0.39294    1.000
    N3703    N        0.62578    0.75159    0.46119    1.000
    N3704    N        0.62638    0.72393    0.39486    1.000
    Si3705   Si       0.62200    0.61250    0.55970    1.000
    N3706    N        0.61248    0.59154    0.52037    1.000
    N3707    N        0.58145    0.60723    0.57729    1.000
    N3708    N        0.63702    0.51155    0.50920    1.000
    Si3709   Si       0.63065    0.72134    0.60655    1.000
    N3710    N        0.61043    0.69370    0.50316    1.000
    N3711    N        0.60280    0.71198    0.57505    1.000
    Si3712   Si       0.60053    0.68021    0.54417    1.000
    N3713    N        0.63197    0.65250    0.54695    1.000
    Si3714   Si       0.57991    0.74958    0.56408    1.000
    N3715    N        0.60887    0.56774    0.63219    1.000
    Si3716   Si       0.60139    0.54124    0.66583    1.000
    N3717    N        0.62563    0.55033    0.69888    1.000
    Si3718   Si       0.61604    0.58903    0.71573    1.000
    N3719    N        0.58530    0.61059    0.69298    1.000
    N3720    N        0.63435    0.63090    0.64149    1.000
    Si3721   Si       0.63132    0.64439    0.68380    1.000
    N3722    N        0.59693    0.74157    0.71962    1.000
    N3723    N        0.61864    0.72748    0.64992    1.000
    Si3724   Si       0.58680    0.75809    0.64342    1.000
    N3725    N        0.60595    0.67687    0.69976    1.000
    Si3726   Si       0.62277    0.71586    0.69155    1.000
    Si3727   Si       0.59744    0.60017    0.79489    1.000
    N3728    N        0.62186    0.52374    0.82847    1.000
    Si3729   Si       0.58716    0.54630    0.84262    1.000
    N3730    N        0.59535    0.59566    0.75245    1.000
    N3731    N        0.62230    0.62510    0.86327    1.000
    Si3732   Si       0.58473    0.64807    0.84845    1.000
    N3733    N        0.59161    0.69130    0.84792    1.000
    Si3734   Si       0.59037    0.72439    0.81202    1.000
    N3735    N        0.63457    0.72012    0.81001    1.000
    N3736    N        0.60480    0.60834    0.92653    1.000
    Si3737   Si       0.60658    0.56730    0.91776    1.000
    N3738    N        0.58101    0.53699    0.94031    1.000
    N3739    N        0.58306    0.56597    0.88028    1.000
    Si3740   Si       0.59141    0.63162    0.96339    1.000
    Si3741   Si       0.63620    0.63135    0.90476    1.000
    N3742    N        0.63369    0.67295    0.91027    1.000
    Si3743   Si       0.62504    0.71343    0.91189    1.000
    N3744    N        0.58198    0.71612    0.91323    1.000
    N3745    N        0.62370    0.65284    0.97745    1.000
    N3746    N        0.58187    0.71844    0.98565    1.000
    N3747    N        0.60365    0.84496    0.07762    1.000
    Si3748   Si       0.59014    0.86933    0.04070    1.000
    N3749    N        0.61730    0.77179    0.09104    1.000
    N3750    N        0.61985    0.76849    0.02525    1.000
    Si3751   Si       0.58906    0.87618    0.10752    1.000
    Si3752   Si       0.63179    0.81232    0.08521    1.000
    N3753    N        0.63318    0.83777    0.00001    1.000
    Si3754   Si       0.59119    0.75933    0.99440    1.000
    N3755    N        0.58262    0.96157    0.03710    1.000
    Si3756   Si       0.62184    0.98061    0.04446    1.000
    N3757    N        0.61302    0.89666    0.01612    1.000
    N3758    N        0.61909    0.99999    0.08651    1.000
    Si3759   Si       0.59109    0.98499    0.11913    1.000
    Si3760   Si       0.63264    0.85935    0.21323    1.000
    Si3761   Si       0.59430    0.76704    0.12818    1.000
    N3762    N        0.60715    0.83960    0.17867    1.000
    N3763    N        0.59975    0.88364    0.22892    1.000
    N3764    N        0.63290    0.77231    0.23260    1.000
    Si3765   Si       0.62027    0.92236    0.23742    1.000
    N3766    N        0.62211    0.89236    0.13171    1.000
    Si3767   Si       0.62175    0.98268    0.18960    1.000
    N3768    N        0.60033    0.94994    0.21046    1.000
    N3769    N        0.62135    0.97043    0.14783    1.000
    N3770    N        0.61005    0.77462    0.35290    1.000
    N3771    N        0.58961    0.87372    0.31106    1.000
    Si3772   Si       0.60123    0.87338    0.35125    1.000
    Si3773   Si       0.61550    0.80246    0.25752    1.000
    Si3774   Si       0.61208    0.76767    0.31095    1.000
    N3775    N        0.57994    0.76469    0.28074    1.000
    N3776    N        0.63049    0.80496    0.29804    1.000
    N3777    N        0.57832    0.82233    0.24997    1.000
    N3778    N        0.62735    0.98279    0.33275    1.000
    N3779    N        0.61466    0.93931    0.27709    1.000
    Si3780   Si       0.60452    0.97963    0.29487    1.000
    Si3781   Si       0.61880    0.90441    0.30154    1.000
    N3782    N        0.61954    0.91299    0.34595    1.000
    Si3783   Si       0.61751    0.95267    0.36359    1.000
    N3784    N        0.62575    0.84729    0.37697    1.000
    N3785    N        0.58522    0.86031    0.44093    1.000
    Si3786   Si       0.61403    0.79378    0.45487    1.000
    N3787    N        0.61468    0.80073    0.41322    1.000
    Si3788   Si       0.59141    0.83852    0.40408    1.000
    N3789    N        0.63197    0.81396    0.48864    1.000
    N3790    N        0.63501    0.88531    0.48128    1.000
    Si3791   Si       0.58003    0.95787    0.49225    1.000
    N3792    N        0.58434    0.93467    0.45548    1.000
    Si3793   Si       0.62897    0.99289    0.42856    1.000
    N3794    N        0.58694    0.99721    0.43069    1.000
    Si3795   Si       0.60638    0.89704    0.45159    1.000
    Si3796   Si       0.59320    0.83704    0.58159    1.000
    N3797    N        0.59736    0.76842    0.60337    1.000
    N3798    N        0.63069    0.81788    0.56605    1.000
    Si3799   Si       0.63397    0.79255    0.52636    1.000
    N3800    N        0.58925    0.88135    0.57812    1.000
    N3801    N        0.60077    0.76026    0.52596    1.000
    N3802    N        0.58979    0.94177    0.58888    1.000
    N3803    N        0.59602    0.92604    0.51819    1.000
    N3804    N        0.60487    0.99050    0.50409    1.000
    Si3805   Si       0.58394    0.90379    0.61613    1.000
    Si3806   Si       0.63287    0.95577    0.59292    1.000
    Si3807   Si       0.63724    0.91308    0.51427    1.000
    N3808    N        0.63804    0.99473    0.57397    1.000
    N3809    N        0.59715    0.83953    0.62555    1.000
    Si3810   Si       0.59573    0.85120    0.73003    1.000
    Si3811   Si       0.60978    0.78172    0.70930    1.000
    N3812    N        0.59780    0.80907    0.73991    1.000
    N3813    N        0.59428    0.79070    0.67002    1.000
    N3814    N        0.58346    0.85804    0.68894    1.000
    N3815    N        0.63136    0.87841    0.72436    1.000
    Si3816   Si       0.63350    0.86005    0.63937    1.000
    Si3817   Si       0.60511    0.89781    0.69123    1.000
    N3818    N        0.63205    0.96548    0.63512    1.000
    Si3819   Si       0.60934    0.99771    0.65121    1.000
    N3820    N        0.61529    0.89991    0.64685    1.000
    N3821    N        0.63671    0.93811    0.70151    1.000
    N3822    N        0.61722    0.83130    0.79961    1.000
    Si3823   Si       0.61192    0.79421    0.77781    1.000
    N3824    N        0.58561    0.76469    0.79472    1.000
    N3825    N        0.62480    0.84684    0.86414    1.000
    Si3826   Si       0.57734    0.84650    0.79776    1.000
    Si3827   Si       0.61019    0.88575    0.84931    1.000
    N3828    N        0.61425    0.92344    0.76893    1.000
    N3829    N        0.60072    0.93157    0.83851    1.000
    Si3830   Si       0.63478    0.93050    0.80652    1.000
    N3831    N        0.60097    0.85009    0.93681    1.000
    N3832    N        0.60279    0.78991    0.96558    1.000
    Si3833   Si       0.59878    0.83241    0.97606    1.000
    Si3834   Si       0.63281    0.84255    0.90546    1.000
    N3835    N        0.60226    0.90133    0.89182    1.000
    N3836    N        0.63102    0.96082    0.96751    1.000
    N3837    N        0.58198    0.91686    0.95558    1.000
    Si3838   Si       0.60222    0.94308    0.88093    1.000
    N3839    N        0.63408    0.97010    0.89008    1.000
    Si3840   Si       0.61696    0.92128    0.97950    1.000
    N3841    N        0.67460    0.11849    0.06845    1.000
    Si3842   Si       0.68155    0.07451    0.07208    1.000
    N3843    N        0.68771    0.06173    0.11406    1.000
    N3844    N        0.64216    0.05719    0.06020    1.000
    N3845    N        0.66688    0.03249    0.00052    1.000
    Si3846   Si       0.68389    0.20459    0.08142    1.000
    N3847    N        0.65301    0.18294    0.06124    1.000
    Si3848   Si       0.64551    0.14086    0.05010    1.000
    N3849    N        0.64592    0.14578    0.00457    1.000
    N3850    N        0.64802    0.20961    0.99789    1.000
    N3851    N        0.65172    0.05830    0.18079    1.000
    Si3852   Si       0.65544    0.07539    0.14064    1.000
    Si3853   Si       0.67630    0.03398    0.20879    1.000
    N3854    N        0.65275    0.11883    0.14804    1.000
    N3855    N        0.63571    0.14424    0.21421    1.000
    Si3856   Si       0.64030    0.21898    0.14615    1.000
    N3857    N        0.67456    0.21150    0.12268    1.000
    N3858    N        0.65337    0.24837    0.17842    1.000
    N3859    N        0.66908    0.18088    0.17740    1.000
    Si3860   Si       0.66680    0.17438    0.22156    1.000
    Si3861   Si       0.67644    0.06366    0.32570    1.000
    N3862    N        0.67458    0.03075    0.35600    1.000
    N3863    N        0.68465    0.10181    0.34343    1.000
    N3864    N        0.63656    0.07094    0.30799    1.000
    N3865    N        0.67173    0.03948    0.25113    1.000
    N3866    N        0.68117    0.14374    0.28296    1.000
    Si3867   Si       0.64663    0.17280    0.28908    1.000
    N3868    N        0.66001    0.17758    0.33192    1.000
    Si3869   Si       0.67709    0.23713    0.26577    1.000
    N3870    N        0.65694    0.19856    0.25480    1.000
    Si3871   Si       0.68290    0.21493    0.34362    1.000
    Si3872   Si       0.68366    0.14175    0.32689    1.000
    N3873    N        0.66353    0.25405    0.35118    1.000
    N3874    N        0.64795    0.03042    0.42413    1.000
    N3875    N        0.65139    0.11371    0.42124    1.000
    N3876    N        0.65315    0.07305    0.47545    1.000
    Si3877   Si       0.68402    0.03047    0.39906    1.000
    Si3878   Si       0.64262    0.07336    0.43535    1.000
    Si3879   Si       0.69037    0.13091    0.43007    1.000
    N3880    N        0.65876    0.22809    0.42078    1.000
    Si3881   Si       0.69650    0.20722    0.41967    1.000
    Si3882   Si       0.66231    0.17673    0.48000    1.000
    N3883    N        0.69272    0.17167    0.44617    1.000
    N3884    N        0.66735    0.06114    0.57902    1.000
    Si3885   Si       0.65429    0.02424    0.59973    1.000
    N3886    N        0.66641    0.01472    0.51036    1.000
    Si3887   Si       0.68334    0.05017    0.49530    1.000
    N3888    N        0.68866    0.20254    0.50216    1.000
    N3889    N        0.65603    0.14379    0.58332    1.000
    Si3890   Si       0.66047    0.23852    0.59768    1.000
    Si3891   Si       0.64708    0.14456    0.54098    1.000
    Si3892   Si       0.68844    0.16828    0.60079    1.000
    N3893    N        0.68725    0.24051    0.56340    1.000
    N3894    N        0.66489    0.13761    0.50015    1.000
    N3895    N        0.66817    0.20063    0.61847    1.000
    Si3896   Si       0.63907    0.12342    0.68257    1.000
    Si3897   Si       0.64535    0.04740    0.69710    1.000
    N3898    N        0.68190    0.11569    0.68263    1.000
    N3899    N        0.68617    0.04061    0.68451    1.000
    N3900    N        0.64107    0.06393    0.73722    1.000
    N3901    N        0.67963    0.18605    0.68207    1.000
    Si3902   Si       0.64577    0.19052    0.65239    1.000
    N3903    N        0.68088    0.04959    0.78748    1.000
    N3904    N        0.68688    0.07405    0.85094    1.000
    Si3905   Si       0.64545    0.03165    0.76770    1.000
    Si3906   Si       0.64279    0.06754    0.85697    1.000
    N3907    N        0.64701    0.13268    0.77760    1.000
    Si3908   Si       0.64585    0.14036    0.81998    1.000
    Si3909   Si       0.66994    0.23201    0.79083    1.000
    N3910    N        0.66931    0.19631    0.76670    1.000
    N3911    N        0.64975    0.23172    0.83124    1.000
    N3912    N        0.68619    0.14995    0.83567    1.000
    Si3913   Si       0.63953    0.16741    0.75339    1.000
    N3914    N        0.68095    0.05441    0.91676    1.000
    N3915    N        0.64648    0.10323    0.95203    1.000
    Si3916   Si       0.68434    0.12627    0.94426    1.000
    Si3917   Si       0.64067    0.06579    0.93044    1.000
    N3918    N        0.68798    0.12502    0.90076    1.000
    Si3919   Si       0.67796    0.17661    0.99506    1.000
    Si3920   Si       0.68845    0.16091    0.87719    1.000
    N3921    N        0.65763    0.18883    0.89045    1.000
    Si3922   Si       0.67395    0.23918    0.98160    1.000
    N3923    N        0.67097    0.24171    0.93915    1.000
    N3924    N        0.68167    0.16906    0.95156    1.000
    Si3925   Si       0.68359    0.20304    0.92194    1.000
    Si3926   Si       0.66496    0.32589    0.08237    1.000
    N3927    N        0.64568    0.28713    0.06761    1.000
    N3928    N        0.66968    0.27620    0.00233    1.000
    Si3929   Si       0.68741    0.28151    0.04173    1.000
    Si3930   Si       0.68925    0.34541    0.01349    1.000
    N3931    N        0.67858    0.33824    0.12253    1.000
    N3932    N        0.68065    0.38951    0.00221    1.000
    N3933    N        0.67133    0.40322    0.09396    1.000
    Si3934   Si       0.67928    0.44322    0.08094    1.000
    N3935    N        0.64789    0.47263    0.08141    1.000
    Si3936   Si       0.68163    0.37680    0.22582    1.000
    Si3937   Si       0.67319    0.32000    0.16116    1.000
    N3938    N        0.68455    0.35242    0.18845    1.000
    Si3939   Si       0.68987    0.45583    0.21644    1.000
    N3940    N        0.67166    0.41759    0.20852    1.000
    N3941    N        0.66244    0.47861    0.24033    1.000
    N3942    N        0.66652    0.50875    0.14029    1.000
    Si3943   Si       0.67132    0.35937    0.29691    1.000
    Si3944   Si       0.66986    0.28495    0.31745    1.000
    N3945    N        0.65355    0.32539    0.31671    1.000
    N3946    N        0.65303    0.26889    0.27956    1.000
    N3947    N        0.65503    0.36171    0.25461    1.000
    N3948    N        0.65649    0.39665    0.31554    1.000
    N3949    N        0.65844    0.46690    0.30778    1.000
    Si3950   Si       0.67974    0.43202    0.32513    1.000
    Si3951   Si       0.67554    0.49889    0.27900    1.000
    N3952    N        0.67366    0.34907    0.45359    1.000
    Si3953   Si       0.66155    0.30725    0.44995    1.000
    Si3954   Si       0.67397    0.37011    0.41593    1.000
    N3955    N        0.64772    0.29724    0.41018    1.000
    N3956    N        0.63860    0.35946    0.39131    1.000
    Si3957   Si       0.64681    0.25682    0.39209    1.000
    Si3958   Si       0.67912    0.36409    0.49432    1.000
    Si3959   Si       0.65386    0.47563    0.48988    1.000
    N3960    N        0.66996    0.41159    0.42615    1.000
    N3961    N        0.65010    0.47310    0.39559    1.000
    Si3962   Si       0.68268    0.44556    0.40057    1.000
    Si3963   Si       0.64156    0.41260    0.45832    1.000
    N3964    N        0.67181    0.50494    0.45987    1.000
    N3965    N        0.65295    0.39676    0.49783    1.000
    N3966    N        0.66340    0.33613    0.52430    1.000
    Si3967   Si       0.68226    0.33642    0.56126    1.000
    N3968    N        0.64754    0.32447    0.58729    1.000
    N3969    N        0.69321    0.37747    0.57247    1.000
    Si3970   Si       0.66747    0.47585    0.60633    1.000
    N3971    N        0.66742    0.49819    0.56888    1.000
    Si3972   Si       0.69025    0.40083    0.61026    1.000
    N3973    N        0.69200    0.46967    0.51037    1.000
    N3974    N        0.67948    0.25845    0.69540    1.000
    N3975    N        0.66904    0.26981    0.62643    1.000
    Si3976   Si       0.64627    0.30910    0.62752    1.000
    Si3977   Si       0.64199    0.36979    0.66091    1.000
    N3978    N        0.65879    0.31938    0.73318    1.000
    N3979    N        0.66527    0.33503    0.65463    1.000
    Si3980   Si       0.65217    0.27721    0.72305    1.000
    Si3981   Si       0.68156    0.35466    0.72528    1.000
    N3982    N        0.65801    0.38207    0.70146    1.000
    N3983    N        0.66538    0.50622    0.63703    1.000
    N3984    N        0.64502    0.48473    0.71542    1.000
    N3985    N        0.64982    0.39847    0.62838    1.000
    Si3986   Si       0.65507    0.31462    0.77991    1.000
    Si3987   Si       0.65744    0.27376    0.84608    1.000
    N3988    N        0.64026    0.35718    0.78467    1.000
    N3989    N        0.63523    0.29677    0.81678    1.000
    N3990    N        0.65514    0.26566    0.76478    1.000
    N3991    N        0.69150    0.36369    0.86901    1.000
    Si3992   Si       0.66231    0.39341    0.85528    1.000
    N3993    N        0.67708    0.41052    0.81809    1.000
    Si3994   Si       0.66396    0.39367    0.77807    1.000
    N3995    N        0.65940    0.46918    0.85038    1.000
    N3996    N        0.66246    0.48107    0.78463    1.000
    Si3997   Si       0.68228    0.45519    0.81439    1.000
    N3998    N        0.65043    0.42455    0.74972    1.000
    Si3999   Si       0.66741    0.46434    0.74521    1.000
    Si4000   Si       0.66114    0.28054    0.92153    1.000
    N4001    N        0.63933    0.27407    0.88544    1.000
    Si4002   Si       0.63682    0.29916    0.98657    1.000
    N4003    N        0.65197    0.33763    0.99367    1.000
    N4004    N        0.69367    0.30896    0.92060    1.000
    Si4005   Si       0.64609    0.37732    0.97822    1.000
    N4006    N        0.65105    0.37506    0.93384    1.000
    N4007    N        0.68096    0.48622    0.91549    1.000
    N4008    N        0.67283    0.41998    0.88953    1.000
    Si4009   Si       0.68674    0.45818    0.88373    1.000
    N4010    N        0.68559    0.45369    0.98102    1.000
    Si4011   Si       0.68761    0.38485    0.91272    1.000
    Si4012   Si       0.65191    0.47935    0.99532    1.000
    N4013    N        0.66698    0.60957    0.09193    1.000
    Si4014   Si       0.67985    0.61638    0.04889    1.000
    N4015    N        0.65982    0.57731    0.04048    1.000
    Si4016   Si       0.68706    0.54322    0.03553    1.000
    Si4017   Si       0.66373    0.51029    0.09610    1.000
    N4018    N        0.66328    0.51221    0.01799    1.000
    Si4019   Si       0.63794    0.58057    0.07832    1.000
    N4020    N        0.69641    0.53148    0.07669    1.000
    N4021    N        0.66479    0.72872    0.06433    1.000
    N4022    N        0.64822    0.64672    0.03944    1.000
    Si4023   Si       0.68007    0.71899    0.10310    1.000
    Si4024   Si       0.65806    0.66303    0.00006    1.000
    Si4025   Si       0.68948    0.72159    0.02917    1.000
    N4026    N        0.66748    0.70608    0.99537    1.000
    N4027    N        0.64331    0.62344    0.15001    1.000
    Si4028   Si       0.68385    0.61081    0.13232    1.000
    Si4029   Si       0.67641    0.62078    0.22126    1.000
    N4030    N        0.63614    0.60204    0.21574    1.000
    N4031    N        0.65819    0.71499    0.20387    1.000
    N4032    N        0.68123    0.75078    0.13542    1.000
    N4033    N        0.69493    0.66144    0.21915    1.000
    Si4034   Si       0.67620    0.69363    0.23991    1.000
    Si4035   Si       0.67925    0.71643    0.16425    1.000
    N4036    N        0.65780    0.69153    0.13160    1.000
    N4037    N        0.66642    0.54317    0.27889    1.000
    N4038    N        0.68190    0.60320    0.26069    1.000
    Si4039   Si       0.64180    0.57534    0.25479    1.000
    Si4040   Si       0.69454    0.57783    0.29709    1.000
    N4041    N        0.68319    0.61706    0.32075    1.000
    Si4042   Si       0.65840    0.63084    0.28789    1.000
    N4043    N        0.70189    0.55052    0.33536    1.000
    Si4044   Si       0.69384    0.63345    0.36175    1.000
    N4045    N        0.65271    0.67059    0.27043    1.000
    N4046    N        0.63653    0.73259    0.30281    1.000
    Si4047   Si       0.67532    0.55796    0.36928    1.000
    N4048    N        0.64166    0.57154    0.46520    1.000
    N4049    N        0.68023    0.59877    0.38435    1.000
    Si4050   Si       0.64867    0.51556    0.40521    1.000
    Si4051   Si       0.66061    0.53824    0.48527    1.000
    N4052    N        0.68781    0.53657    0.40458    1.000
    Si4053   Si       0.63564    0.60759    0.48718    1.000
    N4054    N        0.66086    0.69100    0.44578    1.000
    Si4055   Si       0.64486    0.67316    0.48132    1.000
    N4056    N        0.68975    0.74356    0.41906    1.000
    Si4057   Si       0.69292    0.67594    0.41929    1.000
    N4058    N        0.67885    0.67161    0.37876    1.000
    Si4059   Si       0.65051    0.73117    0.43177    1.000
    N4060    N        0.66946    0.63517    0.49721    1.000
    N4061    N        0.65630    0.59777    0.58381    1.000
    Si4062   Si       0.69654    0.61121    0.57999    1.000
    N4063    N        0.67555    0.69742    0.51026    1.000
    Si4064   Si       0.67193    0.65986    0.53374    1.000
    N4065    N        0.66260    0.69219    0.60839    1.000
    N4066    N        0.65940    0.74909    0.58968    1.000
    Si4067   Si       0.64445    0.59152    0.62472    1.000
    Si4068   Si       0.65556    0.52736    0.72091    1.000
    N4069    N        0.64852    0.61559    0.71053    1.000
    N4070    N        0.67869    0.57511    0.64551    1.000
    Si4071   Si       0.68914    0.61947    0.71938    1.000
    Si4072   Si       0.69055    0.53490    0.65610    1.000
    N4073    N        0.69514    0.53071    0.70131    1.000
    N4074    N        0.67031    0.66633    0.67484    1.000
    Si4075   Si       0.66676    0.65787    0.63240    1.000
    N4076    N        0.66150    0.71659    0.71555    1.000
    Si4077   Si       0.69154    0.68902    0.70493    1.000
    Si4078   Si       0.66838    0.75556    0.73258    1.000
    Si4079   Si       0.67009    0.57713    0.78263    1.000
    Si4080   Si       0.65497    0.52134    0.80051    1.000
    N4081    N        0.68497    0.55111    0.81475    1.000
    N4082    N        0.65291    0.54249    0.76056    1.000
    Si4083   Si       0.65659    0.62423    0.83599    1.000
    N4084    N        0.63961    0.60209    0.80218    1.000
    N4085    N        0.69616    0.61026    0.84317    1.000
    N4086    N        0.66884    0.66710    0.83851    1.000
    Si4087   Si       0.63971    0.69714    0.84652    1.000
    Si4088   Si       0.65793    0.75616    0.80386    1.000
    Si4089   Si       0.68493    0.57358    0.91462    1.000
    N4090    N        0.67430    0.61578    0.91809    1.000
    N4091    N        0.64778    0.55222    0.91724    1.000
    Si4092   Si       0.64399    0.50808    0.92018    1.000
    Si4093   Si       0.67952    0.71871    0.95537    1.000
    N4094    N        0.64801    0.74007    0.93772    1.000
    N4095    N        0.64444    0.72825    0.87504    1.000
    N4096    N        0.69509    0.64583    0.98394    1.000
    N4097    N        0.66268    0.81535    0.05513    1.000
    Si4098   Si       0.65006    0.79944    0.01604    1.000
    Si4099   Si       0.65341    0.87678    0.00979    1.000
    Si4100   Si       0.68985    0.84941    0.05094    1.000
    N4101    N        0.66919    0.88572    0.05402    1.000
    N4102    N        0.65353    0.94118    0.09750    1.000
    N4103    N        0.65855    0.96156    0.03615    1.000
    Si4104   Si       0.66066    0.98533    0.10312    1.000
    Si4105   Si       0.67276    0.92786    0.06198    1.000
    N4106    N        0.68785    0.00705    0.07497    1.000
    Si4107   Si       0.69629    0.97953    0.04168    1.000
    N4108    N        0.64906    0.81983    0.12482    1.000
    N4109    N        0.66187    0.86805    0.18184    1.000
    Si4110   Si       0.66913    0.79678    0.22972    1.000
    Si4111   Si       0.67573    0.79353    0.14469    1.000
    N4112    N        0.67806    0.79977    0.18794    1.000
    N4113    N        0.64791    0.83219    0.24439    1.000
    Si4114   Si       0.63680    0.85310    0.14901    1.000
    N4115    N        0.66418    0.91208    0.23362    1.000
    Si4116   Si       0.68259    0.90442    0.19401    1.000
    N4117    N        0.68935    0.99179    0.13493    1.000
    Si4118   Si       0.64059    0.92952    0.13620    1.000
    N4119    N        0.67103    0.93223    0.16625    1.000
    N4120    N        0.66190    0.99297    0.20023    1.000
    Si4121   Si       0.68747    0.97125    0.17381    1.000
    Si4122   Si       0.65618    0.83961    0.29046    1.000
    N4123    N        0.65610    0.88267    0.29481    1.000
    N4124    N        0.69316    0.83098    0.31100    1.000
    Si4125   Si       0.66800    0.99350    0.33846    1.000
    Si4126   Si       0.68739    0.89380    0.26702    1.000
    N4127    N        0.68597    0.99070    0.29742    1.000
    N4128    N        0.67843    0.80285    0.37168    1.000
    Si4129   Si       0.65821    0.86634    0.40050    1.000
    Si4130   Si       0.65790    0.84680    0.48063    1.000
    N4131    N        0.67036    0.84781    0.43890    1.000
    N4132    N        0.69604    0.86710    0.38078    1.000
    Si4133   Si       0.63405    0.80287    0.37497    1.000
    N4134    N        0.64242    0.96715    0.39572    1.000
    N4135    N        0.63774    0.90258    0.41825    1.000
    Si4136   Si       0.67419    0.97540    0.49211    1.000
    N4137    N        0.65325    0.96783    0.45589    1.000
    Si4138   Si       0.66267    0.93951    0.42281    1.000
    Si4139   Si       0.66238    0.85170    0.56742    1.000
    N4140    N        0.67525    0.77611    0.52443    1.000
    N4141    N        0.66029    0.86998    0.60616    1.000
    Si4142   Si       0.63845    0.78689    0.59788    1.000
    N4143    N        0.66013    0.88780    0.54236    1.000
    N4144    N        0.66281    0.94541    0.52117    1.000
    N4145    N        0.67563    0.93925    0.58989    1.000
    Si4146   Si       0.68825    0.92377    0.54862    1.000
    Si4147   Si       0.68806    0.90206    0.61351    1.000
    N4148    N        0.69289    0.00823    0.61432    1.000
    N4149    N        0.65153    0.78196    0.70042    1.000
    N4150    N        0.66567    0.79926    0.62840    1.000
    N4151    N        0.65933    0.84820    0.67285    1.000
    Si4152   Si       0.67122    0.86508    0.71098    1.000
    Si4153   Si       0.67087    0.80606    0.67151    1.000
    N4154    N        0.69531    0.90227    0.71699    1.000
    N4155    N        0.68317    0.91567    0.65361    1.000
    Si4156   Si       0.65332    0.97839    0.70951    1.000
    Si4157   Si       0.64545    0.91729    0.74008    1.000
    N4158    N        0.69424    0.97317    0.69152    1.000
    Si4159   Si       0.64342    0.93347    0.65794    1.000
    N4160    N        0.65165    0.78827    0.83588    1.000
    Si4161   Si       0.64548    0.83139    0.83071    1.000
    N4162    N        0.64551    0.77070    0.76614    1.000
    N4163    N        0.68806    0.83755    0.83280    1.000
    Si4164   Si       0.69471    0.88096    0.82304    1.000
    N4165    N        0.65066    0.89439    0.82596    1.000
    N4166    N        0.64942    0.96988    0.81391    1.000
    Si4167   Si       0.67650    0.97380    0.78161    1.000
    Si4168   Si       0.65131    0.98675    0.85378    1.000
    N4169    N        0.67636    0.93329    0.76871    1.000
    N4170    N        0.65889    0.99450    0.74814    1.000
    N4171    N        0.66927    0.86310    0.91494    1.000
    Si4172   Si       0.65176    0.76989    0.87949    1.000
    N4173    N        0.67025    0.78727    0.97954    1.000
    Si4174   Si       0.64060    0.78164    0.94802    1.000
    N4175    N        0.63607    0.79857    0.90746    1.000
    N4176    N        0.65755    0.89956    0.97125    1.000
    N4177    N        0.68354    0.93604    0.91782    1.000
    Si4178   Si       0.65130    0.96262    0.93019    1.000
    N4179    N        0.67536    0.99731    0.94590    1.000
    Si4180   Si       0.68464    0.89595    0.93765    1.000
    Si4181   Si       0.64237    0.00331    0.97748    1.000
    N4182    N        0.71184    0.06478    0.04206    1.000
    N4183    N        0.73969    0.11581    0.08166    1.000
    Si4184   Si       0.70925    0.02348    0.11064    1.000
    Si4185   Si       0.70834    0.03738    0.00625    1.000
    N4186    N        0.75097    0.03091    0.10225    1.000
    Si4187   Si       0.75144    0.08289    0.05538    1.000
    Si4188   Si       0.71070    0.13987    0.06148    1.000
    N4189    N        0.71926    0.17671    0.08136    1.000
    N4190    N        0.70922    0.15057    0.01841    1.000
    Si4191   Si       0.73948    0.24406    0.05649    1.000
    Si4192   Si       0.74816    0.15357    0.10526    1.000
    N4193    N        0.69724    0.24270    0.06291    1.000
    N4194    N        0.71809    0.03753    0.20018    1.000
    Si4195   Si       0.73842    0.07630    0.21034    1.000
    N4196    N        0.70612    0.09859    0.22796    1.000
    Si4197   Si       0.69658    0.25091    0.18907    1.000
    N4198    N        0.72346    0.21736    0.17751    1.000
    Si4199   Si       0.70059    0.19010    0.15074    1.000
    N4200    N        0.72542    0.15670    0.14438    1.000
    Si4201   Si       0.74166    0.19407    0.20869    1.000
    Si4202   Si       0.74756    0.25576    0.24136    1.000
    N4203    N        0.71133    0.16985    0.22960    1.000
    N4204    N        0.70547    0.24871    0.23224    1.000
    N4205    N        0.71359    0.05148    0.30540    1.000
    Si4206   Si       0.70453    0.02196    0.27274    1.000
    N4207    N        0.75226    0.08547    0.35821    1.000
    Si4208   Si       0.75207    0.05377    0.32847    1.000
    N4209    N        0.75207    0.12914    0.27235    1.000
    Si4210   Si       0.71164    0.13367    0.25389    1.000
    N4211    N        0.72511    0.15427    0.33374    1.000
    N4212    N        0.69918    0.22383    0.30271    1.000
    Si4213   Si       0.73461    0.24746    0.31061    1.000
    N4214    N        0.75139    0.24346    0.35025    1.000
    Si4215   Si       0.71414    0.09681    0.37419    1.000
    N4216    N        0.71596    0.03892    0.46912    1.000
    Si4217   Si       0.72864    0.06980    0.44232    1.000
    N4218    N        0.70422    0.06844    0.40509    1.000
    N4219    N        0.71318    0.10583    0.45922    1.000
    Si4220   Si       0.73533    0.16758    0.37485    1.000
    Si4221   Si       0.72862    0.19864    0.47745    1.000
    N4222    N        0.71671    0.13556    0.39652    1.000
    N4223    N        0.70385    0.20040    0.37864    1.000
    N4224    N        0.72565    0.22878    0.44414    1.000
    N4225    N        0.73022    0.11245    0.57650    1.000
    N4226    N        0.73917    0.04372    0.58205    1.000
    Si4227   Si       0.71047    0.07278    0.56551    1.000
    N4228    N        0.70424    0.07826    0.52252    1.000
    Si4229   Si       0.73712    0.11354    0.61906    1.000
    Si4230   Si       0.70191    0.11511    0.49909    1.000
    N4231    N        0.73162    0.14387    0.51221    1.000
    N4232    N        0.71530    0.17977    0.56780    1.000
    Si4233   Si       0.71079    0.21324    0.53973    1.000
    Si4234   Si       0.74026    0.14727    0.55402    1.000
    N4235    N        0.74457    0.22133    0.51281    1.000
    Si4236   Si       0.72661    0.03559    0.62335    1.000
    Si4237   Si       0.71791    0.00884    0.68862    1.000
    Si4238   Si       0.70610    0.08028    0.67858    1.000
    N4239    N        0.72293    0.07770    0.63864    1.000
    N4240    N        0.73796    0.07953    0.70783    1.000
    Si4241   Si       0.73997    0.12180    0.71854    1.000
    N4242    N        0.74725    0.01775    0.65716    1.000
    N4243    N        0.73786    0.01085    0.72560    1.000
    N4244    N        0.70841    0.14045    0.74171    1.000
    Si4245   Si       0.70328    0.15095    0.66999    1.000
    N4246    N        0.72784    0.20909    0.73132    1.000
    N4247    N        0.72775    0.23486    0.66447    1.000
    Si4248   Si       0.70144    0.22082    0.69693    1.000
    N4249    N        0.74460    0.14615    0.68196    1.000
    N4250    N        0.71061    0.14478    0.62952    1.000
    Si4251   Si       0.71127    0.06735    0.81382    1.000
    N4252    N        0.73399    0.10186    0.80532    1.000
    N4253    N        0.73917    0.03589    0.82872    1.000
    Si4254   Si       0.72910    0.14356    0.82152    1.000
    N4255    N        0.73798    0.17551    0.79361    1.000
    N4256    N        0.71206    0.24120    0.79819    1.000
    Si4257   Si       0.70955    0.18035    0.75910    1.000
    Si4258   Si       0.74813    0.21576    0.80086    1.000
    Si4259   Si       0.70838    0.02362    0.93163    1.000
    N4260    N        0.72572    0.04428    0.96559    1.000
    N4261    N        0.73840    0.07631    0.90496    1.000
    N4262    N        0.72290    0.11396    0.95994    1.000
    Si4263   Si       0.74460    0.07911    0.95010    1.000
    Si4264   Si       0.69979    0.08373    0.89115    1.000
    Si4265   Si       0.74253    0.13656    0.99331    1.000
    N4266    N        0.70870    0.21393    0.99066    1.000
    N4267    N        0.71765    0.19046    0.89398    1.000
    Si4268   Si       0.73545    0.32481    0.07342    1.000
    N4269    N        0.73325    0.36439    0.09156    1.000
    N4270    N        0.74318    0.30196    0.10930    1.000
    N4271    N        0.74028    0.28573    0.04125    1.000
    Si4272   Si       0.69912    0.37625    0.11573    1.000
    N4273    N        0.69493    0.32623    0.05109    1.000
    Si4274   Si       0.70449    0.42593    0.00674    1.000
    N4275    N        0.70525    0.44543    0.04562    1.000
    N4276    N        0.71369    0.45220    0.10639    1.000
    Si4277   Si       0.74155    0.44846    0.07193    1.000
    N4278    N        0.70272    0.28860    0.16825    1.000
    Si4279   Si       0.72368    0.36859    0.18311    1.000
    Si4280   Si       0.74121    0.30286    0.15284    1.000
    N4281    N        0.72508    0.38339    0.22382    1.000
    N4282    N        0.71694    0.39650    0.15024    1.000
    Si4283   Si       0.70342    0.50574    0.16168    1.000
    N4284    N        0.71401    0.46543    0.17822    1.000
    Si4285   Si       0.72617    0.43860    0.14577    1.000
    N4286    N        0.72718    0.45867    0.24000    1.000
    Si4287   Si       0.75021    0.46397    0.20405    1.000
    N4288    N        0.71430    0.35832    0.30339    1.000
    N4289    N        0.71276    0.28718    0.31253    1.000
    Si4290   Si       0.73764    0.32402    0.31500    1.000
    Si4291   Si       0.74094    0.39208    0.30465    1.000
    N4292    N        0.71885    0.42873    0.30365    1.000
    Si4293   Si       0.73757    0.46225    0.28141    1.000
    N4294    N        0.71805    0.49933    0.29331    1.000
    N4295    N        0.69856    0.42634    0.36492    1.000
    Si4296   Si       0.74881    0.34004    0.41605    1.000
    N4297    N        0.74247    0.29668    0.41459    1.000
    N4298    N        0.71274    0.36409    0.39749    1.000
    Si4299   Si       0.73164    0.27282    0.44938    1.000
    N4300    N        0.69472    0.28434    0.46457    1.000
    N4301    N        0.73649    0.42575    0.47172    1.000
    Si4302   Si       0.73015    0.39698    0.37500    1.000
    N4303    N        0.71402    0.46955    0.42010    1.000
    Si4304   Si       0.74659    0.44353    0.43429    1.000
    N4305    N        0.71880    0.31413    0.55459    1.000
    N4306    N        0.71849    0.37428    0.51053    1.000
    Si4307   Si       0.72899    0.38969    0.54963    1.000
    Si4308   Si       0.73188    0.46117    0.58478    1.000
    N4309    N        0.73143    0.43282    0.55149    1.000
    Si4310   Si       0.72880    0.44769    0.50972    1.000
    N4311    N        0.73500    0.49865    0.56014    1.000
    N4312    N        0.69677    0.44307    0.60449    1.000
    Si4313   Si       0.69772    0.50467    0.53755    1.000
    N4314    N        0.72541    0.30221    0.64765    1.000
    N4315    N        0.71651    0.34735    0.70103    1.000
    Si4316   Si       0.70826    0.34264    0.65682    1.000
    N4317    N        0.71901    0.37819    0.63303    1.000
    Si4318   Si       0.70034    0.26977    0.65764    1.000
    N4319    N        0.75022    0.49190    0.68488    1.000
    N4320    N        0.71000    0.46383    0.73394    1.000
    Si4321   Si       0.72467    0.50249    0.71806    1.000
    Si4322   Si       0.72133    0.34819    0.78705    1.000
    Si4323   Si       0.71801    0.28062    0.81774    1.000
    Si4324   Si       0.73626    0.37057    0.85778    1.000
    N4325    N        0.74206    0.37200    0.81646    1.000
    N4326    N        0.69843    0.31306    0.79037    1.000
    N4327    N        0.69843    0.37368    0.76035    1.000
    N4328    N        0.69596    0.28870    0.85337    1.000
    N4329    N        0.72278    0.46004    0.79860    1.000
    Si4330   Si       0.74598    0.46219    0.76084    1.000
    N4331    N        0.72625    0.45937    0.86486    1.000
    Si4332   Si       0.75276    0.46990    0.82666    1.000
    N4333    N        0.75371    0.50694    0.75132    1.000
    N4334    N        0.74514    0.33142    0.87512    1.000
    Si4335   Si       0.70344    0.32210    0.88153    1.000
    N4336    N        0.71822    0.36940    0.93877    1.000
    Si4337   Si       0.72485    0.32823    0.94853    1.000
    N4338    N        0.72725    0.33180    0.99170    1.000
    Si4339   Si       0.74463    0.40288    0.95333    1.000
    N4340    N        0.73612    0.50105    0.96157    1.000
    N4341    N        0.74566    0.41857    0.99287    1.000
    Si4342   Si       0.70933    0.47071    0.94817    1.000
    N4343    N        0.72873    0.43423    0.92846    1.000
    Si4344   Si       0.72473    0.54635    0.10566    1.000
    N4345    N        0.72162    0.61935    0.04171    1.000
    N4346    N        0.72374    0.55684    0.01546    1.000
    Si4347   Si       0.74854    0.58373    0.04157    1.000
    N4348    N        0.75533    0.56562    0.08200    1.000
    Si4349   Si       0.72758    0.65172    0.01269    1.000
    N4350    N        0.72143    0.70585    0.09838    1.000
    N4351    N        0.71744    0.69056    0.03533    1.000
    Si4352   Si       0.74793    0.69898    0.06471    1.000
    N4353    N        0.73426    0.51288    0.13160    1.000
    N4354    N        0.70749    0.57412    0.13462    1.000
    Si4355   Si       0.72166    0.57221    0.17467    1.000
    N4356    N        0.71648    0.53357    0.19219    1.000
    N4357    N        0.70363    0.60581    0.19250    1.000
    N4358    N        0.72182    0.69994    0.16636    1.000
    N4359    N        0.71210    0.64250    0.13922    1.000
    Si4360   Si       0.72802    0.75491    0.24024    1.000
    Si4361   Si       0.73315    0.67883    0.12901    1.000
    Si4362   Si       0.71968    0.64877    0.18411    1.000
    Si4363   Si       0.75040    0.73159    0.17439    1.000
    Si4364   Si       0.73393    0.53212    0.31591    1.000
    N4365    N        0.73568    0.56574    0.28423    1.000
    N4366    N        0.74443    0.70421    0.31831    1.000
    Si4367   Si       0.74712    0.70896    0.27591    1.000
    N4368    N        0.73669    0.64225    0.36155    1.000
    N4369    N        0.70937    0.71846    0.25330    1.000
    N4370    N        0.69774    0.63558    0.43293    1.000
    N4371    N        0.74257    0.58302    0.40676    1.000
    N4372    N        0.73939    0.52715    0.45354    1.000
    N4373    N        0.71228    0.58490    0.46578    1.000
    Si4374   Si       0.73192    0.55498    0.48844    1.000
    Si4375   Si       0.70638    0.62732    0.47332    1.000
    Si4376   Si       0.70222    0.59173    0.42282    1.000
    Si4377   Si       0.70682    0.50922    0.43557    1.000
    N4378    N        0.74377    0.64097    0.48707    1.000
    Si4379   Si       0.72803    0.73320    0.44064    1.000
    N4380    N        0.72350    0.74441    0.48400    1.000
    N4381    N        0.73268    0.69256    0.42429    1.000
    N4382    N        0.72708    0.58021    0.57195    1.000
    Si4383   Si       0.74321    0.55819    0.60569    1.000
    N4384    N        0.70166    0.63262    0.62058    1.000
    N4385    N        0.69539    0.54104    0.51154    1.000
    N4386    N        0.70793    0.64113    0.55007    1.000
    N4387    N        0.73259    0.69130    0.60473    1.000
    N4388    N        0.71671    0.72617    0.55323    1.000
    Si4389   Si       0.74861    0.64439    0.52915    1.000
    Si4390   Si       0.74246    0.65148    0.61812    1.000
    Si4391   Si       0.75147    0.70921    0.56973    1.000
    Si4392   Si       0.69565    0.72158    0.59563    1.000
    Si4393   Si       0.69379    0.73656    0.51626    1.000
    Si4394   Si       0.71164    0.60341    0.65018    1.000
    N4395    N        0.72613    0.52936    0.63056    1.000
    N4396    N        0.71901    0.61214    0.69110    1.000
    N4397    N        0.74992    0.58982    0.63564    1.000
    Si4398   Si       0.75368    0.64323    0.69597    1.000
    N4399    N        0.70789    0.65775    0.73125    1.000
    Si4400   Si       0.73930    0.73452    0.72407    1.000
    Si4401   Si       0.73704    0.71023    0.64865    1.000
    N4402    N        0.72208    0.71635    0.69053    1.000
    N4403    N        0.71585    0.74551    0.62580    1.000
    N4404    N        0.75190    0.66660    0.65777    1.000
    Si4405   Si       0.71370    0.56916    0.83933    1.000
    N4406    N        0.75315    0.56970    0.82268    1.000
    N4407    N        0.69889    0.60195    0.76019    1.000
    Si4408   Si       0.73022    0.63334    0.76061    1.000
    N4409    N        0.74992    0.71457    0.82306    1.000
    Si4410   Si       0.73870    0.74869    0.79641    1.000
    Si4411   Si       0.71208    0.65160    0.83764    1.000
    N4412    N        0.73319    0.65337    0.79875    1.000
    N4413    N        0.74104    0.71955    0.76255    1.000
    N4414    N        0.74780    0.65756    0.86680    1.000
    N4415    N        0.70825    0.55580    0.88130    1.000
    Si4416   Si       0.74478    0.55561    0.90608    1.000
    N4417    N        0.71711    0.56408    0.94072    1.000
    Si4418   Si       0.73552    0.54352    0.97520    1.000
    N4419    N        0.71884    0.74251    0.95409    1.000
    Si4420   Si       0.69834    0.64452    0.93951    1.000
    N4421    N        0.74522    0.72513    0.88802    1.000
    N4422    N        0.73836    0.63190    0.93132    1.000
    Si4423   Si       0.73736    0.71175    0.92848    1.000
    N4424    N        0.70052    0.68728    0.93100    1.000
    N4425    N        0.72713    0.84731    0.07150    1.000
    Si4426   Si       0.73730    0.82290    0.10608    1.000
    Si4427   Si       0.74623    0.77056    0.04628    1.000
    N4428    N        0.74705    0.78448    0.08684    1.000
    N4429    N        0.71345    0.75824    0.02150    1.000
    N4430    N        0.69182    0.85191    0.00874    1.000
    N4431    N        0.71282    0.94247    0.05894    1.000
    N4432    N        0.72356    0.99642    0.01231    1.000
    Si4433   Si       0.75475    0.94099    0.06129    1.000
    Si4434   Si       0.72267    0.80172    0.18426    1.000
    Si4435   Si       0.74378    0.86702    0.22368    1.000
    N4436    N        0.71664    0.81084    0.14150    1.000
    N4437    N        0.74762    0.83060    0.20050    1.000
    N4438    N        0.73133    0.76073    0.19707    1.000
    Si4439   Si       0.74515    0.93153    0.17796    1.000
    N4440    N        0.72398    0.90105    0.20169    1.000
    N4441    N        0.74549    0.91705    0.13809    1.000
    N4442    N        0.72878    0.97013    0.18757    1.000
    Si4443   Si       0.74258    0.00241    0.21156    1.000
    Si4444   Si       0.71982    0.82522    0.27481    1.000
    N4445    N        0.71255    0.86154    0.25364    1.000
    Si4446   Si       0.70424    0.83437    0.35287    1.000
    N4447    N        0.74686    0.83308    0.35431    1.000
    N4448    N        0.70531    0.78937    0.25494    1.000
    Si4449   Si       0.71224    0.95815    0.30830    1.000
    N4450    N        0.71525    0.92065    0.28521    1.000
    N4451    N        0.73776    0.99768    0.25617    1.000
    N4452    N        0.69813    0.96550    0.35187    1.000
    N4453    N        0.72064    0.80576    0.42455    1.000
    Si4454   Si       0.71069    0.83854    0.45058    1.000
    Si4455   Si       0.70390    0.77751    0.39523    1.000
    N4456    N        0.73581    0.87241    0.44086    1.000
    N4457    N        0.73759    0.76175    0.37169    1.000
    N4458    N        0.69812    0.83355    0.49323    1.000
    N4459    N        0.71696    0.97262    0.48162    1.000
    Si4460   Si       0.71758    0.96424    0.38872    1.000
    N4461    N        0.70197    0.93106    0.41205    1.000
    N4462    N        0.71048    0.99856    0.41397    1.000
    Si4463   Si       0.72317    0.89106    0.40448    1.000
    Si4464   Si       0.73122    0.00000    0.45311    1.000
    Si4465   Si       0.73451    0.84900    0.58330    1.000
    N4466    N        0.74634    0.78995    0.53351    1.000
    Si4467   Si       0.70778    0.80748    0.52621    1.000
    N4468    N        0.73899    0.81756    0.61346    1.000
    N4469    N        0.70004    0.83365    0.56050    1.000
    N4470    N        0.72678    0.88846    0.60042    1.000
    Si4471   Si       0.73656    0.95722    0.51687    1.000
    N4472    N        0.72468    0.91569    0.52359    1.000
    N4473    N        0.71876    0.97563    0.55012    1.000
    N4474    N        0.73928    0.95451    0.60948    1.000
    Si4475   Si       0.70679    0.97295    0.59138    1.000
    Si4476   Si       0.70868    0.78809    0.62621    1.000
    N4477    N        0.71627    0.79939    0.67110    1.000
    Si4478   Si       0.72410    0.80126    0.71396    1.000
    N4479    N        0.70964    0.76553    0.73420    1.000
    N4480    N        0.69812    0.83445    0.72531    1.000
    N4481    N        0.75038    0.92661    0.68330    1.000
    Si4482   Si       0.70867    0.93171    0.68556    1.000
    N4483    N        0.74298    0.79137    0.84552    1.000
    Si4484   Si       0.72948    0.85133    0.75279    1.000
    Si4485   Si       0.69932    0.79479    0.83917    1.000
    N4486    N        0.70953    0.87665    0.78209    1.000
    N4487    N        0.70112    0.76500    0.80775    1.000
    Si4488   Si       0.71656    0.91028    0.75496    1.000
    N4489    N        0.72163    0.90774    0.84102    1.000
    N4490    N        0.71582    0.98535    0.79513    1.000
    Si4491   Si       0.72699    0.99399    0.83571    1.000
    Si4492   Si       0.74488    0.98638    0.76021    1.000
    N4493    N        0.69625    0.98296    0.86401    1.000
    N4494    N        0.74210    0.94507    0.74559    1.000
    N4495    N        0.69585    0.77577    0.88124    1.000
    N4496    N        0.74058    0.81320    0.97069    1.000
    Si4497   Si       0.73809    0.76790    0.88202    1.000
    Si4498   Si       0.71312    0.77692    0.98007    1.000
    Si4499   Si       0.72371    0.85326    0.98091    1.000
    Si4500   Si       0.71353    0.95798    0.89735    1.000
    N4501    N        0.72207    0.88367    0.95039    1.000
    N4502    N        0.74549    0.92739    0.89985    1.000
    N4503    N        0.73514    0.99359    0.91453    1.000
    N4504    N        0.79307    0.07346    0.06090    1.000
    N4505    N        0.76330    0.10572    0.01858    1.000
    Si4506   Si       0.80664    0.09480    0.02141    1.000
    N4507    N        0.78155    0.01014    0.03867    1.000
    Si4508   Si       0.78099    0.01049    0.08035    1.000
    N4509    N        0.76196    0.21388    0.03435    1.000
    N4510    N        0.78698    0.17071    0.08968    1.000
    Si4511   Si       0.78694    0.20747    0.06899    1.000
    N4512    N        0.76397    0.23881    0.09271    1.000
    N4513    N        0.75970    0.09708    0.18044    1.000
    N4514    N        0.76966    0.06535    0.23774    1.000
    Si4515   Si       0.80371    0.03577    0.23583    1.000
    Si4516   Si       0.79807    0.09663    0.15676    1.000
    N4517    N        0.80977    0.06162    0.13724    1.000
    N4518    N        0.78733    0.13523    0.14022    1.000
    N4519    N        0.78551    0.00854    0.20661    1.000
    N4520    N        0.76952    0.22053    0.23055    1.000
    N4521    N        0.77447    0.16719    0.19222    1.000
    Si4522   Si       0.75467    0.13692    0.17002    1.000
    N4523    N        0.78326    0.07615    0.30674    1.000
    Si4524   Si       0.77978    0.09686    0.26836    1.000
    Si4525   Si       0.78837    0.10049    0.34285    1.000
    N4526    N        0.76744    0.01813    0.34427    1.000
    N4527    N        0.80538    0.00927    0.27081    1.000
    N4528    N        0.79004    0.14117    0.32773    1.000
    Si4529   Si       0.79385    0.22815    0.29909    1.000
    N4530    N        0.76022    0.19931    0.29863    1.000
    Si4531   Si       0.75584    0.15836    0.30505    1.000
    Si4532   Si       0.78326    0.21925    0.37180    1.000
    N4533    N        0.81154    0.21010    0.33768    1.000
    Si4534   Si       0.79953    0.03335    0.44350    1.000
    N4535    N        0.77155    0.06698    0.44051    1.000
    Si4536   Si       0.80048    0.09716    0.45614    1.000
    N4537    N        0.80775    0.12888    0.42688    1.000
    N4538    N        0.79466    0.11432    0.49729    1.000
    N4539    N        0.76969    0.18550    0.39464    1.000
    Si4540   Si       0.78910    0.17032    0.43054    1.000
    N4541    N        0.76519    0.17373    0.46605    1.000
    N4542    N        0.79254    0.25600    0.39384    1.000
    Si4543   Si       0.78116    0.03335    0.57262    1.000
    N4544    N        0.79453    0.05512    0.53793    1.000
    N4545    N        0.79774    0.03969    0.61326    1.000
    Si4546   Si       0.81417    0.09162    0.52785    1.000
    N4547    N        0.78148    0.16041    0.54410    1.000
    Si4548   Si       0.77717    0.24881    0.50609    1.000
    N4549    N        0.80458    0.22004    0.58474    1.000
    Si4550   Si       0.77420    0.15068    0.50207    1.000
    N4551    N        0.77841    0.12385    0.62760    1.000
    N4552    N        0.79732    0.04302    0.69866    1.000
    Si4553   Si       0.79168    0.02756    0.65582    1.000
    Si4554   Si       0.76373    0.04819    0.72526    1.000
    N4555    N        0.77414    0.12052    0.74517    1.000
    Si4556   Si       0.78389    0.15006    0.66301    1.000
    N4557    N        0.79140    0.19321    0.65289    1.000
    N4558    N        0.79849    0.17852    0.72667    1.000
    Si4559   Si       0.77181    0.21261    0.73224    1.000
    N4560    N        0.78645    0.24347    0.70376    1.000
    Si4561   Si       0.77262    0.23090    0.66250    1.000
    Si4562   Si       0.81089    0.13859    0.73143    1.000
    Si4563   Si       0.77420    0.03250    0.80252    1.000
    Si4564   Si       0.77040    0.09941    0.78329    1.000
    N4565    N        0.80367    0.11782    0.80385    1.000
    N4566    N        0.76860    0.05940    0.76842    1.000
    N4567    N        0.79759    0.09733    0.86993    1.000
    N4568    N        0.77970    0.22445    0.77358    1.000
    N4569    N        0.76138    0.22173    0.84141    1.000
    N4570    N        0.75645    0.15026    0.85499    1.000
    Si4571   Si       0.80905    0.03407    0.96433    1.000
    Si4572   Si       0.78029    0.06935    0.89921    1.000
    N4573    N        0.78788    0.02873    0.88682    1.000
    N4574    N        0.78705    0.06822    0.94324    1.000
    N4575    N        0.79304    0.13030    0.92393    1.000
    Si4576   Si       0.75321    0.19141    0.87018    1.000
    Si4577   Si       0.79691    0.16145    0.95609    1.000
    N4578    N        0.76230    0.17105    0.97658    1.000
    N4579    N        0.78947    0.18628    0.89306    1.000
    Si4580   Si       0.79462    0.14192    0.88178    1.000
    N4581    N        0.77231    0.24611    0.97328    1.000
    Si4582   Si       0.75223    0.21118    0.99001    1.000
    N4583    N        0.77363    0.33755    0.05197    1.000
    Si4584   Si       0.77686    0.27410    0.11190    1.000
    Si4585   Si       0.75993    0.31619    0.01614    1.000
    Si4586   Si       0.77430    0.37529    0.07434    1.000
    Si4587   Si       0.81305    0.32910    0.07252    1.000
    N4588    N        0.81008    0.36364    0.09903    1.000
    N4589    N        0.80904    0.39391    0.01054    1.000
    N4590    N        0.79783    0.46447    0.01832    1.000
    Si4591   Si       0.77986    0.42358    0.01999    1.000
    N4592    N        0.76749    0.48251    0.07732    1.000
    N4593    N        0.76637    0.41489    0.05908    1.000
    Si4594   Si       0.80017    0.49419    0.05290    1.000
    Si4595   Si       0.76874    0.48559    0.12030    1.000
    Si4596   Si       0.79794    0.28052    0.19021    1.000
    N4597    N        0.77509    0.27366    0.15511    1.000
    N4598    N        0.79468    0.36482    0.22764    1.000
    Si4599   Si       0.79443    0.35400    0.18342    1.000
    N4600    N        0.76897    0.28679    0.22085    1.000
    N4601    N        0.75372    0.34124    0.17221    1.000
    N4602    N        0.80845    0.39020    0.16162    1.000
    Si4603   Si       0.79943    0.43072    0.17075    1.000
    N4604    N        0.77480    0.49734    0.19666    1.000
    Si4605   Si       0.76465    0.39600    0.23417    1.000
    N4606    N        0.77692    0.42831    0.20650    1.000
    N4607    N        0.76887    0.44801    0.14239    1.000
    Si4608   Si       0.81232    0.49811    0.17285    1.000
    Si4609   Si       0.78600    0.35133    0.35539    1.000
    N4610    N        0.77421    0.32932    0.29002    1.000
    Si4611   Si       0.79774    0.29105    0.28650    1.000
    N4612    N        0.76140    0.31537    0.35083    1.000
    Si4613   Si       0.80714    0.35059    0.26613    1.000
    N4614    N        0.76608    0.25916    0.28056    1.000
    N4615    N        0.75719    0.38089    0.34301    1.000
    N4616    N        0.77927    0.46218    0.29631    1.000
    N4617    N        0.77395    0.39909    0.27638    1.000
    Si4618   Si       0.79849    0.49253    0.32199    1.000
    Si4619   Si       0.80559    0.42766    0.29276    1.000
    N4620    N        0.80478    0.47559    0.36151    1.000
    N4621    N        0.79135    0.35472    0.40174    1.000
    Si4622   Si       0.78016    0.32167    0.48172    1.000
    N4623    N        0.76704    0.28005    0.47676    1.000
    Si4624   Si       0.75928    0.28091    0.37675    1.000
    N4625    N        0.75440    0.35054    0.45964    1.000
    N4626    N        0.75616    0.41500    0.40336    1.000
    N4627    N        0.78049    0.46964    0.43415    1.000
    N4628    N        0.79980    0.40152    0.45565    1.000
    Si4629   Si       0.80101    0.49141    0.40381    1.000
    Si4630   Si       0.79094    0.48168    0.47521    1.000
    Si4631   Si       0.75342    0.38666    0.48349    1.000
    Si4632   Si       0.79310    0.39620    0.41427    1.000
    N4633    N        0.78011    0.33227    0.52308    1.000
    Si4634   Si       0.79220    0.36936    0.54566    1.000
    N4635    N        0.77533    0.30264    0.59079    1.000
    N4636    N        0.78957    0.26832    0.54359    1.000
    Si4637   Si       0.79961    0.26372    0.58832    1.000
    N4638    N        0.76015    0.37430    0.57260    1.000
    Si4639   Si       0.76114    0.37548    0.61659    1.000
    Si4640   Si       0.76130    0.30644    0.55132    1.000
    N4641    N        0.78271    0.39576    0.51344    1.000
    N4642    N        0.76035    0.46840    0.61683    1.000
    N4643    N        0.76039    0.47747    0.50416    1.000
    N4644    N        0.81034    0.49770    0.54521    1.000
    Si4645   Si       0.76602    0.30127    0.63274    1.000
    N4646    N        0.77661    0.34372    0.64014    1.000
    N4647    N        0.78188    0.31586    0.70461    1.000
    Si4648   Si       0.79693    0.34786    0.67764    1.000
    Si4649   Si       0.80319    0.28164    0.71645    1.000
    N4650    N        0.78108    0.37743    0.70505    1.000
    Si4651   Si       0.75512    0.34816    0.72214    1.000
    N4652    N        0.78410    0.26288    0.63527    1.000
    Si4653   Si       0.79880    0.40983    0.72735    1.000
    Si4654   Si       0.78538    0.47026    0.70128    1.000
    N4655    N        0.77354    0.44363    0.73093    1.000
    N4656    N        0.81193    0.50220    0.71972    1.000
    Si4657   Si       0.75666    0.50287    0.64497    1.000
    Si4658   Si       0.79657    0.44934    0.63097    1.000
    N4659    N        0.80999    0.47000    0.66488    1.000
    N4660    N        0.78977    0.40699    0.62574    1.000
    Si4661   Si       0.78308    0.30890    0.78869    1.000
    Si4662   Si       0.77967    0.37024    0.79274    1.000
    N4663    N        0.75938    0.28561    0.81661    1.000
    N4664    N        0.80381    0.28508    0.76009    1.000
    N4665    N        0.80531    0.33961    0.81149    1.000
    N4666    N        0.75994    0.34202    0.76671    1.000
    Si4667   Si       0.78514    0.25743    0.84197    1.000
    N4668    N        0.78487    0.46478    0.85599    1.000
    N4669    N        0.78564    0.47255    0.79323    1.000
    N4670    N        0.80476    0.39505    0.76746    1.000
    Si4671   Si       0.79585    0.50348    0.76354    1.000
    N4672    N        0.76193    0.30564    0.93667    1.000
    Si4673   Si       0.78984    0.28342    0.96267    1.000
    N4674    N        0.79203    0.27303    0.88026    1.000
    Si4675   Si       0.77934    0.31315    0.89635    1.000
    N4676    N        0.81117    0.34280    0.89934    1.000
    N4677    N        0.79859    0.31204    0.99514    1.000
    N4678    N        0.78194    0.45999    0.92104    1.000
    N4679    N        0.78706    0.38929    0.94443    1.000
    Si4680   Si       0.79559    0.38278    0.90241    1.000
    N4681    N        0.76198    0.39840    0.88028    1.000
    Si4682   Si       0.75552    0.44063    0.89148    1.000
    Si4683   Si       0.77484    0.49686    0.94287    1.000
    Si4684   Si       0.79876    0.49887    0.87833    1.000
    N4685    N        0.79024    0.59522    0.03378    1.000
    Si4686   Si       0.79728    0.57058    0.07348    1.000
    N4687    N        0.80035    0.53461    0.04084    1.000
    Si4688   Si       0.80571    0.56230    0.00736    1.000
    N4689    N        0.80599    0.60981    0.10194    1.000
    Si4690   Si       0.79264    0.63868    0.03205    1.000
    N4691    N        0.77428    0.66378    0.06481    1.000
    Si4692   Si       0.79645    0.65329    0.10204    1.000
    N4693    N        0.77304    0.73518    0.05931    1.000
    Si4694   Si       0.80145    0.74880    0.02726    1.000
    N4695    N        0.76736    0.64626    0.99776    1.000
    Si4696   Si       0.77811    0.60723    0.20877    1.000
    N4697    N        0.76354    0.57301    0.18646    1.000
    N4698    N        0.78500    0.54912    0.24027    1.000
    Si4699   Si       0.75781    0.53552    0.20915    1.000
    N4700    N        0.80472    0.50548    0.13170    1.000
    N4701    N        0.77552    0.67313    0.13230    1.000
    N4702    N        0.76315    0.64459    0.19145    1.000
    Si4703   Si       0.79888    0.72479    0.23640    1.000
    Si4704   Si       0.79146    0.67266    0.17437    1.000
    Si4705   Si       0.81058    0.75260    0.17180    1.000
    N4706    N        0.78514    0.71247    0.19200    1.000
    N4707    N        0.77574    0.75204    0.14302    1.000
    N4708    N        0.77384    0.52660    0.33162    1.000
    Si4709   Si       0.77448    0.57606    0.27201    1.000
    N4710    N        0.78778    0.59241    0.36035    1.000
    Si4711   Si       0.80318    0.61053    0.32597    1.000
    Si4712   Si       0.79321    0.54947    0.36387    1.000
    N4713    N        0.77293    0.61490    0.25220    1.000
    N4714    N        0.80925    0.57717    0.29713    1.000
    N4715    N        0.78242    0.64485    0.31109    1.000
    Si4716   Si       0.79332    0.64837    0.26946    1.000
    N4717    N        0.77961    0.68792    0.25667    1.000
    N4718    N        0.76429    0.74814    0.26145    1.000
    Si4719   Si       0.75961    0.73254    0.34815    1.000
    Si4720   Si       0.75942    0.66824    0.33807    1.000
    N4721    N        0.77986    0.69532    0.36799    1.000
    Si4722   Si       0.76559    0.55396    0.43072    1.000
    N4723    N        0.78658    0.53012    0.40336    1.000
    N4724    N        0.78350    0.57897    0.46198    1.000
    Si4725   Si       0.77476    0.62334    0.46159    1.000
    Si4726   Si       0.76101    0.61538    0.38624    1.000
    Si4727   Si       0.80240    0.55610    0.49449    1.000
    N4728    N        0.81041    0.64026    0.47756    1.000
    N4729    N        0.77645    0.63927    0.42007    1.000
    N4730    N        0.76808    0.75372    0.43856    1.000
    N4731    N        0.80539    0.69859    0.43091    1.000
    Si4732   Si       0.77213    0.68231    0.40911    1.000
    Si4733   Si       0.80922    0.74168    0.42840    1.000
    N4734    N        0.78308    0.55257    0.58719    1.000
    N4735    N        0.77843    0.61401    0.53774    1.000
    N4736    N        0.76511    0.54837    0.51937    1.000
    Si4737   Si       0.76685    0.57552    0.55356    1.000
    Si4738   Si       0.76973    0.50716    0.53487    1.000
    Si4739   Si       0.81431    0.54708    0.61654    1.000
    N4740    N        0.78281    0.63744    0.60512    1.000
    N4741    N        0.78363    0.73683    0.56993    1.000
    N4742    N        0.77022    0.67569    0.54869    1.000
    Si4743   Si       0.80297    0.65610    0.57135    1.000
    N4744    N        0.78988    0.62159    0.67965    1.000
    Si4745   Si       0.80557    0.61610    0.72016    1.000
    N4746    N        0.79244    0.52844    0.65028    1.000
    Si4747   Si       0.78976    0.60844    0.63843    1.000
    N4748    N        0.76733    0.62834    0.73863    1.000
    N4749    N        0.78628    0.68316    0.70941    1.000
    Si4750   Si       0.79558    0.75674    0.67495    1.000
    N4751    N        0.78165    0.72212    0.65264    1.000
    Si4752   Si       0.79250    0.68354    0.66813    1.000
    Si4753   Si       0.78632    0.57231    0.84782    1.000
    N4754    N        0.80412    0.53143    0.85119    1.000
    N4755    N        0.80741    0.69121    0.84990    1.000
    N4756    N        0.79740    0.68280    0.77855    1.000
    Si4757   Si       0.76550    0.69737    0.86169    1.000
    Si4758   Si       0.75413    0.68847    0.78833    1.000
    N4759    N        0.77707    0.55535    0.97584    1.000
    N4760    N        0.77192    0.52128    0.90755    1.000
    N4761    N        0.76653    0.58650    0.88561    1.000
    Si4762   Si       0.76250    0.63013    0.89534    1.000
    N4763    N        0.79791    0.63624    0.91930    1.000
    N4764    N        0.76912    0.69321    0.94999    1.000
    Si4765   Si       0.77325    0.64905    0.95287    1.000
    N4766    N        0.81019    0.72581    0.91207    1.000
    N4767    N        0.81129    0.73301    0.98769    1.000
    N4768    N        0.77830    0.78718    0.02266    1.000
    Si4769   Si       0.76457    0.86302    0.05345    1.000
    N4770    N        0.75912    0.86614    0.00841    1.000
    N4771    N        0.77497    0.84645    0.11255    1.000
    N4772    N        0.80522    0.84599    0.05338    1.000
    Si4773   Si       0.78039    0.75791    0.10003    1.000
    Si4774   Si       0.77652    0.82286    0.99745    1.000
    Si4775   Si       0.80991    0.95215    0.11423    1.000
    Si4776   Si       0.77164    0.89049    0.11704    1.000
    Si4777   Si       0.76323    0.98596    0.00731    1.000
    N4778    N        0.76894    0.90154    0.07309    1.000
    N4779    N        0.76457    0.94329    0.01900    1.000
    N4780    N        0.77668    0.96596    0.08842    1.000
    Si4781   Si       0.77975    0.90640    0.99709    1.000
    N4782    N        0.78120    0.87853    0.24366    1.000
    Si4783   Si       0.79931    0.91562    0.22904    1.000
    N4784    N        0.78610    0.93631    0.19323    1.000
    Si4785   Si       0.80769    0.97322    0.19099    1.000
    Si4786   Si       0.79101    0.85752    0.28003    1.000
    Si4787   Si       0.77362    0.86803    0.35182    1.000
    Si4788   Si       0.76548    0.79526    0.36056    1.000
    N4789    N        0.76415    0.82070    0.28017    1.000
    Si4790   Si       0.77902    0.78113    0.28429    1.000
    N4791    N        0.78016    0.76787    0.32601    1.000
    N4792    N        0.77128    0.88354    0.30960    1.000
    Si4793   Si       0.77479    0.98079    0.27573    1.000
    Si4794   Si       0.77664    0.97740    0.34609    1.000
    N4795    N        0.78719    0.94153    0.26082    1.000
    Si4796   Si       0.75961    0.91989    0.28765    1.000
    N4797    N        0.75663    0.96054    0.31114    1.000
    N4798    N        0.80806    0.85934    0.44330    1.000
    Si4799   Si       0.79612    0.84101    0.48510    1.000
    N4800    N        0.76762    0.81025    0.47017    1.000
    N4801    N        0.78687    0.80666    0.39709    1.000
    Si4802   Si       0.76146    0.79528    0.42913    1.000
    Si4803   Si       0.75688    0.77266    0.49182    1.000
    Si4804   Si       0.79382    0.96396    0.46898    1.000
    N4805    N        0.76197    0.89367    0.38415    1.000
    Si4806   Si       0.78142    0.92823    0.39987    1.000
    N4807    N        0.77917    0.92977    0.44378    1.000
    Si4808   Si       0.77379    0.88907    0.45197    1.000
    N4809    N        0.77317    1.00000    0.45504    1.000
    N4810    N        0.76120    0.96156    0.38273    1.000
    Si4811   Si       0.78426    0.77491    0.54808    1.000
    N4812    N        0.76474    0.85769    0.55387    1.000
    N4813    N        0.80483    0.80226    0.57515    1.000
    Si4814   Si       0.80507    0.84121    0.55832    1.000
    N4815    N        0.79581    0.75946    0.50796    1.000
    N4816    N        0.77675    0.87906    0.49486    1.000
    Si4817   Si       0.76406    0.89528    0.53389    1.000
    N4818    N        0.78256    0.92120    0.56166    1.000
    N4819    N        0.78015    0.96101    0.51053    1.000
    Si4820   Si       0.80407    0.95584    0.54621    1.000
    N4821    N        0.79834    0.99056    0.57306    1.000
    Si4822   Si       0.75947    0.91934    0.59797    1.000
    N4823    N        0.75729    0.82054    0.73796    1.000
    N4824    N        0.76120    0.85380    0.67507    1.000
    Si4825   Si       0.77882    0.85459    0.71653    1.000
    N4826    N        0.78999    0.79156    0.64868    1.000
    Si4827   Si       0.75519    0.81748    0.65433    1.000
    N4828    N        0.77016    0.76330    0.71159    1.000
    Si4829   Si       0.77456    0.89409    0.66514    1.000
    N4830    N        0.79069    0.90260    0.62500    1.000
    N4831    N        0.81012    0.94470    0.73722    1.000
    N4832    N        0.75684    0.88351    0.74184    1.000
    Si4833   Si       0.77366    0.92217    0.72235    1.000
    N4834    N        0.80387    0.89316    0.69982    1.000
    Si4835   Si       0.78140    0.79301    0.82890    1.000
    N4836    N        0.77254    0.77735    0.78754    1.000
    N4837    N        0.79567    0.83364    0.83509    1.000
    N4838    N        0.80677    0.77120    0.85589    1.000
    Si4839   Si       0.79660    0.86024    0.87120    1.000
    Si4840   Si       0.78625    0.78741    0.74559    1.000
    N4841    N        0.78031    0.99410    0.78367    1.000
    N4842    N        0.79125    0.89975    0.85248    1.000
    N4843    N        0.75961    0.97075    0.85556    1.000
    Si4844   Si       0.75735    0.92528    0.85642    1.000
    Si4845   Si       0.80485    0.76626    0.89980    1.000
    N4846    N        0.80282    0.82239    0.96435    1.000
    N4847    N        0.77548    0.85950    0.91068    1.000
    N4848    N        0.76581    0.78656    0.91096    1.000
    Si4849   Si       0.77004    0.82256    0.93410    1.000
    N4850    N        0.80750    0.96293    0.91287    1.000
    N4851    N        0.78391    0.99838    0.97079    1.000
    Si4852   Si       0.77670    0.98823    0.89408    1.000
    N4853    N        0.78479    0.91859    0.95700    1.000
    Si4854   Si       0.75817    0.89765    0.92741    1.000
    Si4855   Si       0.80199    0.95974    0.95519    1.000
    N4856    N        0.84529    0.11288    0.03339    1.000
    N4857    N        0.83211    0.11206    0.10162    1.000
    Si4858   Si       0.85850    0.05719    0.02691    1.000
    N4859    N        0.82263    0.02189    0.09493    1.000
    Si4860   Si       0.82441    0.06783    0.09461    1.000
    N4861    N        0.86238    0.06645    0.07072    1.000
    Si4862   Si       0.86531    0.11496    0.07105    1.000
    N4863    N        0.82399    0.05997    0.99831    1.000
    N4864    N        0.85906    0.01352    0.03367    1.000
    N4865    N        0.82803    0.21509    0.06632    1.000
    N4866    N        0.85153    0.17821    0.01075    1.000
    Si4867   Si       0.86334    0.19222    0.05002    1.000
    Si4868   Si       0.81751    0.15128    0.11238    1.000
    Si4869   Si       0.85170    0.13786    0.99856    1.000
    N4870    N        0.85832    0.24438    0.12008    1.000
    N4871    N        0.86880    0.15993    0.07706    1.000
    Si4872   Si       0.84088    0.25513    0.08072    1.000
    N4873    N        0.82575    0.11465    0.18796    1.000
    Si4874   Si       0.84279    0.09667    0.22344    1.000
    Si4875   Si       0.82603    0.02089    0.14035    1.000
    N4876    N        0.83914    0.05257    0.21905    1.000
    Si4877   Si       0.86676    0.02189    0.20373    1.000
    N4878    N        0.86317    0.02455    0.16031    1.000
    Si4879   Si       0.86922    0.20690    0.14250    1.000
    N4880    N        0.83701    0.17834    0.21149    1.000
    Si4881   Si       0.81323    0.21391    0.22660    1.000
    N4882    N        0.83683    0.17693    0.14261    1.000
    Si4883   Si       0.81494    0.15742    0.17647    1.000
    N4884    N        0.82579    0.25031    0.20426    1.000
    N4885    N        0.84732    0.03744    0.32663    1.000
    Si4886   Si       0.85377    0.11791    0.28375    1.000
    Si4887   Si       0.85813    0.07083    0.34993    1.000
    N4888    N        0.82035    0.10529    0.26041    1.000
    N4889    N        0.82468    0.09252    0.36588    1.000
    N4890    N        0.84557    0.15792    0.29922    1.000
    Si4891   Si       0.85904    0.19578    0.28484    1.000
    Si4892   Si       0.84834    0.24281    0.34149    1.000
    N4893    N        0.82283    0.21613    0.26902    1.000
    Si4894   Si       0.82423    0.16904    0.33465    1.000
    N4895    N        0.82758    0.06197    0.46438    1.000
    Si4896   Si       0.83788    0.12458    0.39366    1.000
    Si4897   Si       0.86577    0.06377    0.48519    1.000
    N4898    N        0.82062    0.02200    0.40868    1.000
    Si4899   Si       0.86142    0.01650    0.40005    1.000
    N4900    N        0.83905    0.16254    0.37469    1.000
    Si4901   Si       0.85276    0.19408    0.40282    1.000
    Si4902   Si       0.83988    0.22273    0.46865    1.000
    N4903    N        0.85393    0.23347    0.38444    1.000
    N4904    N        0.82468    0.19638    0.43583    1.000
    N4905    N        0.85742    0.09531    0.51353    1.000
    Si4906   Si       0.86058    0.12762    0.54453    1.000
    N4907    N        0.82467    0.10988    0.56543    1.000
    Si4908   Si       0.81765    0.12282    0.60525    1.000
    N4909    N        0.84689    0.16916    0.53369    1.000
    N4910    N        0.82856    0.16533    0.59950    1.000
    N4911    N        0.81889    0.23065    0.50421    1.000
    Si4912   Si       0.81495    0.18147    0.56117    1.000
    Si4913   Si       0.84976    0.10841    0.67388    1.000
    N4914    N        0.86079    0.06725    0.68717    1.000
    Si4915   Si       0.83750    0.04566    0.71531    1.000
    N4916    N        0.85071    0.10886    0.63176    1.000
    N4917    N        0.81327    0.12792    0.68890    1.000
    Si4918   Si       0.82034    0.20093    0.62084    1.000
    N4919    N        0.85286    0.22369    0.63259    1.000
    Si4920   Si       0.84449    0.03860    0.79417    1.000
    Si4921   Si       0.82167    0.02758    0.86044    1.000
    N4922    N        0.86231    0.11089    0.82829    1.000
    N4923    N        0.83921    0.05675    0.75576    1.000
    Si4924   Si       0.82101    0.09019    0.83500    1.000
    N4925    N        0.81181    0.04750    0.82412    1.000
    N4926    N        0.84719    0.13195    0.75341    1.000
    Si4927   Si       0.84288    0.13621    0.79762    1.000
    N4928    N        0.85877    0.17889    0.80066    1.000
    N4929    N        0.84871    0.23551    0.75277    1.000
    Si4930   Si       0.81568    0.24831    0.77955    1.000
    N4931    N        0.82296    0.25789    0.82093    1.000
    N4932    N        0.85246    0.05590    0.87403    1.000
    N4933    N        0.81408    0.12711    0.98230    1.000
    N4934    N        0.84172    0.02155    0.93928    1.000
    N4935    N        0.85667    0.08694    0.94106    1.000
    Si4936   Si       0.86235    0.05187    0.91521    1.000
    Si4937   Si       0.81763    0.10189    0.94594    1.000
    N4938    N        0.83981    0.15168    0.87822    1.000
    N4939    N        0.86218    0.24241    0.98928    1.000
    N4940    N        0.83118    0.18489    0.94571    1.000
    Si4941   Si       0.83156    0.18967    0.90288    1.000
    N4942    N        0.85296    0.22714    0.90148    1.000
    Si4943   Si       0.85662    0.20265    0.97586    1.000
    N4944    N        0.84353    0.33444    0.04270    1.000
    N4945    N        0.86898    0.27199    0.05229    1.000
    N4946    N        0.81156    0.28856    0.09022    1.000
    Si4947   Si       0.83847    0.33509    0.99852    1.000
    N4948    N        0.83946    0.48513    0.07465    1.000
    N4949    N        0.86260    0.41730    0.11650    1.000
    N4950    N        0.86479    0.47823    0.01084    1.000
    N4951    N        0.86556    0.35636    0.14872    1.000
    Si4952   Si       0.86029    0.32596    0.17947    1.000
    N4953    N        0.81822    0.31782    0.18365    1.000
    Si4954   Si       0.86895    0.25655    0.19741    1.000
    N4955    N        0.83147    0.45975    0.17673    1.000
    Si4956   Si       0.83689    0.38342    0.12952    1.000
    N4957    N        0.86734    0.48643    0.23244    1.000
    Si4958   Si       0.86849    0.45402    0.19947    1.000
    N4959    N        0.86431    0.41254    0.21285    1.000
    N4960    N        0.82801    0.34727    0.34357    1.000
    N4961    N        0.82766    0.31129    0.26116    1.000
    Si4962   Si       0.85604    0.31747    0.35427    1.000
    N4963    N        0.84263    0.37511    0.28058    1.000
    N4964    N        0.81845    0.26665    0.31468    1.000
    Si4965   Si       0.86914    0.31404    0.24912    1.000
    Si4966   Si       0.85082    0.38090    0.32232    1.000
    N4967    N        0.82120    0.41239    0.32981    1.000
    N4968    N        0.83951    0.43843    0.27036    1.000
    Si4969   Si       0.85945    0.47666    0.27415    1.000
    Si4970   Si       0.83103    0.44072    0.36270    1.000
    Si4971   Si       0.86147    0.40401    0.25591    1.000
    N4972    N        0.86689    0.46334    0.35395    1.000
    N4973    N        0.83620    0.50598    0.29692    1.000
    N4974    N        0.81699    0.32559    0.46016    1.000
    Si4975   Si       0.83263    0.26569    0.40629    1.000
    Si4976   Si       0.84867    0.29742    0.46934    1.000
    N4977    N        0.83928    0.30546    0.39309    1.000
    N4978    N        0.86093    0.36134    0.42615    1.000
    Si4979   Si       0.82748    0.33688    0.42050    1.000
    N4980    N        0.84285    0.26041    0.44770    1.000
    N4981    N        0.86989    0.43038    0.45163    1.000
    Si4982   Si       0.81822    0.41168    0.49336    1.000
    Si4983   Si       0.85822    0.50195    0.37533    1.000
    N4984    N        0.82057    0.45404    0.49245    1.000
    Si4985   Si       0.86241    0.40245    0.41883    1.000
    N4986    N        0.84484    0.48880    0.41337    1.000
    N4987    N        0.82793    0.41487    0.39638    1.000
    N4988    N        0.83999    0.27774    0.58107    1.000
    N4989    N        0.85235    0.29030    0.51079    1.000
    N4990    N        0.82865    0.37907    0.56596    1.000
    Si4991   Si       0.86693    0.37934    0.54489    1.000
    Si4992   Si       0.86863    0.29951    0.60399    1.000
    Si4993   Si       0.83764    0.25938    0.53866    1.000
    Si4994   Si       0.83765    0.48623    0.57577    1.000
    Si4995   Si       0.82659    0.40579    0.59911    1.000
    Si4996   Si       0.84513    0.48680    0.51128    1.000
    N4997    N        0.85808    0.39589    0.50719    1.000
    N4998    N        0.82472    0.45013    0.59613    1.000
    N4999    N        0.86649    0.47316    0.54698    1.000
    N5000    N        0.83923    0.35026    0.67647    1.000
    N5001    N        0.84353    0.28765    0.70549    1.000
    Si5002   Si       0.86448    0.31502    0.68025    1.000
    N5003    N        0.85394    0.39805    0.63171    1.000
    Si5004   Si       0.85151    0.39234    0.67517    1.000
    N5005    N        0.83673    0.41764    0.70907    1.000
    Si5006   Si       0.84670    0.34193    0.82186    1.000
    N5007    N        0.85933    0.36147    0.85899    1.000
    Si5008   Si       0.86058    0.27464    0.83376    1.000
    N5009    N        0.86674    0.36564    0.79088    1.000
    N5010    N        0.85232    0.29343    0.87178    1.000
    Si5011   Si       0.84529    0.40221    0.78368    1.000
    N5012    N        0.84566    0.48221    0.83003    1.000
    N5013    N        0.83321    0.41650    0.82317    1.000
    Si5014   Si       0.85316    0.40483    0.86037    1.000
    Si5015   Si       0.81344    0.45519    0.82211    1.000
    Si5016   Si       0.86822    0.47581    0.86668    1.000
    Si5017   Si       0.85424    0.33269    0.89116    1.000
    N5018    N        0.82629    0.27848    0.94003    1.000
    N5019    N        0.85126    0.36511    0.96818    1.000
    Si5020   Si       0.86511    0.27617    0.96178    1.000
    Si5021   Si       0.83206    0.26380    0.89894    1.000
    N5022    N        0.87070    0.30767    0.98895    1.000
    Si5023   Si       0.82106    0.39557    0.96913    1.000
    N5024    N        0.83602    0.48582    0.89774    1.000
    N5025    N        0.81542    0.50132    0.95985    1.000
    N5026    N        0.82812    0.41212    0.89582    1.000
    Si5027   Si       0.82838    0.46966    0.98854    1.000
    N5028    N        0.83548    0.43638    0.96121    1.000
    Si5029   Si       0.82388    0.44784    0.92079    1.000
    N5030    N        0.83388    0.55579    0.09137    1.000
    Si5031   Si       0.84712    0.59456    0.10747    1.000
    Si5032   Si       0.84017    0.51599    0.10684    1.000
    N5033    N        0.84708    0.57307    0.00146    1.000
    N5034    N        0.84138    0.75581    0.04044    1.000
    N5035    N        0.83456    0.65292    0.03790    1.000
    N5036    N        0.83666    0.67319    0.10160    1.000
    Si5037   Si       0.86126    0.65530    0.07144    1.000
    Si5038   Si       0.85814    0.66244    0.00374    1.000
    Si5039   Si       0.85510    0.74198    0.99249    1.000
    N5040    N        0.86059    0.58847    0.15194    1.000
    N5041    N        0.82308    0.59852    0.21131    1.000
    Si5042   Si       0.85087    0.61814    0.18029    1.000
    N5043    N        0.83362    0.53280    0.18709    1.000
    Si5044   Si       0.82217    0.55709    0.21963    1.000
    Si5045   Si       0.85431    0.60719    0.24321    1.000
    Si5046   Si       0.86918    0.54751    0.16601    1.000
    N5047    N        0.83800    0.72852    0.14859    1.000
    Si5048   Si       0.84870    0.68784    0.13854    1.000
    N5049    N        0.83121    0.65712    0.16743    1.000
    Si5050   Si       0.86725    0.76185    0.14610    1.000
    Si5051   Si       0.84348    0.54879    0.29320    1.000
    N5052    N        0.83657    0.53915    0.36261    1.000
    N5053    N        0.85280    0.55908    0.25134    1.000
    N5054    N        0.84110    0.62858    0.33251    1.000
    N5055    N        0.83713    0.64452    0.26121    1.000
    Si5056   Si       0.85982    0.71817    0.29508    1.000
    N5057    N        0.83183    0.72216    0.32761    1.000
    N5058    N        0.83906    0.71366    0.25490    1.000
    Si5059   Si       0.82495    0.70676    0.36747    1.000
    Si5060   Si       0.86665    0.63775    0.29870    1.000
    Si5061   Si       0.86566    0.67871    0.24726    1.000
    N5062    N        0.81405    0.51745    0.48339    1.000
    Si5063   Si       0.83076    0.67407    0.46158    1.000
    N5064    N        0.86869    0.66250    0.44065    1.000
    N5065    N        0.84262    0.70616    0.48856    1.000
    N5066    N        0.85760    0.67895    0.37636    1.000
    N5067    N        0.82904    0.74538    0.38934    1.000
    N5068    N        0.83210    0.58060    0.51379    1.000
    N5069    N        0.84614    0.52056    0.60190    1.000
    Si5070   Si       0.81675    0.61964    0.51521    1.000
    N5071    N        0.83643    0.64219    0.54911    1.000
    N5072    N        0.84690    0.74465    0.54514    1.000
    N5073    N        0.82447    0.68857    0.59137    1.000
    Si5074   Si       0.82610    0.72932    0.58010    1.000
    Si5075   Si       0.83729    0.74711    0.50161    1.000
    N5076    N        0.83910    0.75513    0.61095    1.000
    N5077    N        0.82647    0.58807    0.62750    1.000
    Si5078   Si       0.86694    0.60191    0.62953    1.000
    N5079    N        0.85607    0.53523    0.66846    1.000
    Si5080   Si       0.86077    0.56970    0.69448    1.000
    N5081    N        0.82351    0.57751    0.71984    1.000
    N5082    N        0.86994    0.60823    0.67276    1.000
    Si5083   Si       0.82239    0.51045    0.67791    1.000
    Si5084   Si       0.81593    0.68144    0.74082    1.000
    Si5085   Si       0.85444    0.67342    0.62171    1.000
    N5086    N        0.83521    0.74278    0.68309    1.000
    N5087    N        0.83886    0.64379    0.72871    1.000
    Si5088   Si       0.85906    0.64862    0.68884    1.000
    Si5089   Si       0.86674    0.72100    0.70223    1.000
    N5090    N        0.83225    0.66789    0.65908    1.000
    N5091    N        0.84836    0.70997    0.74155    1.000
    Si5092   Si       0.83482    0.52501    0.82265    1.000
    Si5093   Si       0.85731    0.59209    0.82048    1.000
    N5094    N        0.85077    0.59692    0.77763    1.000
    N5095    N        0.82231    0.53306    0.78241    1.000
    Si5096   Si       0.84260    0.56039    0.75510    1.000
    N5097    N        0.86658    0.55119    0.83352    1.000
    N5098    N        0.81930    0.59837    0.83976    1.000
    Si5099   Si       0.86588    0.63620    0.76365    1.000
    N5100    N        0.83862    0.73502    0.80637    1.000
    Si5101   Si       0.84985    0.74573    0.76521    1.000
    N5102    N        0.86047    0.66499    0.79799    1.000
    Si5103   Si       0.82775    0.69207    0.80890    1.000
    N5104    N        0.86151    0.73992    0.87129    1.000
    N5105    N        0.85098    0.55575    0.92223    1.000
    Si5106   Si       0.84602    0.51401    0.93175    1.000
    N5107    N        0.85339    0.67483    0.90042    1.000
    Si5108   Si       0.83846    0.64605    0.92785    1.000
    Si5109   Si       0.80977    0.70676    0.95104    1.000
    N5110    N        0.83160    0.66705    0.96612    1.000
    Si5111   Si       0.83409    0.70798    0.87969    1.000
    N5112    N        0.86822    0.73289    0.94854    1.000
    Si5113   Si       0.86944    0.75693    0.90987    1.000
    Si5114   Si       0.83857    0.86776    0.03474    1.000
    Si5115   Si       0.85370    0.77903    0.07264    1.000
    N5116    N        0.84653    0.84594    0.11165    1.000
    N5117    N        0.86470    0.85131    0.00447    1.000
    N5118    N        0.81502    0.78584    0.09132    1.000
    Si5119   Si       0.80913    0.82879    0.09169    1.000
    N5120    N        0.86232    0.88727    0.06554    1.000
    N5121    N        0.84566    0.95891    0.08834    1.000
    N5122    N        0.82120    0.90007    0.01358    1.000
    Si5123   Si       0.85610    0.99993    0.07588    1.000
    Si5124   Si       0.86751    0.98188    0.00471    1.000
    Si5125   Si       0.87368    0.92360    0.08812    1.000
    Si5126   Si       0.85148    0.82090    0.18761    1.000
    N5127    N        0.83721    0.78934    0.16200    1.000
    N5128    N        0.84155    0.82045    0.23029    1.000
    N5129    N        0.84218    0.86259    0.17521    1.000
    Si5130   Si       0.84340    0.77895    0.24270    1.000
    Si5131   Si       0.84368    0.88312    0.13737    1.000
    N5132    N        0.81572    0.76118    0.21475    1.000
    N5133    N        0.81133    0.90863    0.12613    1.000
    Si5134   Si       0.86550    0.88135    0.20806    1.000
    Si5135   Si       0.86904    0.94917    0.22553    1.000
    N5136    N        0.84197    0.91633    0.21931    1.000
    N5137    N        0.84734    0.98319    0.21204    1.000
    N5138    N        0.81116    0.97965    0.14800    1.000
    Si5139   Si       0.84436    0.83934    0.33552    1.000
    N5140    N        0.83195    0.85031    0.29368    1.000
    N5141    N        0.83882    0.79583    0.34453    1.000
    Si5142   Si       0.86255    0.83861    0.26481    1.000
    N5143    N        0.82406    0.77702    0.28086    1.000
    Si5144   Si       0.82468    0.76476    0.32244    1.000
    N5145    N        0.81638    0.85790    0.36430    1.000
    Si5146   Si       0.84278    0.95381    0.35520    1.000
    N5147    N        0.86200    0.91565    0.34322    1.000
    N5148    N        0.81695    0.97409    0.32843    1.000
    Si5149   Si       0.83332    0.00515    0.30355    1.000
    Si5150   Si       0.81827    0.83672    0.40372    1.000
    Si5151   Si       0.86509    0.79534    0.45229    1.000
    Si5152   Si       0.84902    0.87142    0.45319    1.000
    N5153    N        0.85492    0.81244    0.40924    1.000
    Si5154   Si       0.85471    0.77764    0.38144    1.000
    N5155    N        0.86190    0.87693    0.41121    1.000
    N5156    N        0.86509    0.83486    0.47310    1.000
    N5157    N        0.83465    0.76445    0.45310    1.000
    Si5158   Si       0.84170    0.89315    0.37620    1.000
    N5159    N        0.82293    0.93042    0.38682    1.000
    N5160    N        0.85802    0.90416    0.47834    1.000
    N5161    N        0.83783    0.96911    0.46991    1.000
    N5162    N        0.86876    0.98711    0.36833    1.000
    N5163    N        0.83245    0.86381    0.58235    1.000
    Si5164   Si       0.86012    0.81686    0.51263    1.000
    Si5165   Si       0.82065    0.79422    0.61690    1.000
    N5166    N        0.81779    0.82851    0.51750    1.000
    Si5167   Si       0.86721    0.83720    0.58550    1.000
    N5168    N        0.84704    0.95021    0.53888    1.000
    N5169    N        0.85646    0.92866    0.60558    1.000
    Si5170   Si       0.83122    0.89383    0.61412    1.000
    Si5171   Si       0.85966    0.94220    0.49638    1.000
    N5172    N        0.86851    0.99893    0.58869    1.000
    Si5173   Si       0.82756    0.00477    0.60481    1.000
    Si5174   Si       0.87198    0.95660    0.57483    1.000
    N5175    N        0.85628    0.81803    0.62342    1.000
    Si5176   Si       0.84228    0.86631    0.69207    1.000
    Si5177   Si       0.85124    0.81051    0.72540    1.000
    N5178    N        0.81655    0.83596    0.71725    1.000
    N5179    N        0.85391    0.88397    0.65322    1.000
    N5180    N        0.85375    0.00545    0.71809    1.000
    N5181    N        0.82558    0.99944    0.64845    1.000
    N5182    N        0.85282    0.94595    0.67905    1.000
    Si5183   Si       0.85643    0.99008    0.67643    1.000
    N5184    N        0.85941    0.88856    0.72993    1.000
    Si5185   Si       0.84779    0.92866    0.72046    1.000
    Si5186   Si       0.83979    0.83737    0.83253    1.000
    N5187    N        0.84318    0.87306    0.80546    1.000
    Si5188   Si       0.86712    0.87066    0.76981    1.000
    N5189    N        0.86309    0.80219    0.82321    1.000
    Si5190   Si       0.84628    0.76370    0.83777    1.000
    N5191    N        0.82897    0.77882    0.74685    1.000
    Si5192   Si       0.82784    0.90482    0.83048    1.000
    N5193    N        0.83224    0.98675    0.85815    1.000
    N5194    N        0.84775    0.99346    0.78574    1.000
    Si5195   Si       0.85520    0.96663    0.82587    1.000
    N5196    N        0.85837    0.92418    0.85610    1.000
    N5197    N        0.82209    0.94097    0.80553    1.000
    Si5198   Si       0.81241    0.96817    0.77309    1.000
    N5199    N        0.84097    0.85675    0.87361    1.000
    N5200    N        0.86175    0.78660    0.98762    1.000
    Si5201   Si       0.84323    0.80861    0.95519    1.000
    N5202    N        0.83786    0.78712    0.91718    1.000
    N5203    N        0.86814    0.84146    0.94105    1.000
    N5204    N        0.83599    0.95862    0.98251    1.000
    Si5205   Si       0.85515    0.92287    0.99751    1.000
    Si5206   Si       0.84293    0.95377    0.88684    1.000
    N5207    N        0.90768    0.11103    0.08588    1.000
    Si5208   Si       0.90307    0.06720    0.08435    1.000
    N5209    N        0.89420    0.07246    0.00772    1.000
    N5210    N        0.89285    0.01178    0.09475    1.000
    N5211    N        0.89942    0.21468    0.04173    1.000
    Si5212   Si       0.90931    0.15555    0.10046    1.000
    Si5213   Si       0.89011    0.25152    0.02185    1.000
    N5214    N        0.90328    0.19414    0.11982    1.000
    N5215    N        0.87658    0.11863    0.24313    1.000
    N5216    N        0.91986    0.06260    0.12550    1.000
    Si5217   Si       0.90171    0.02411    0.13637    1.000
    N5218    N        0.90959    0.02063    0.21291    1.000
    Si5219   Si       0.87643    0.16090    0.22665    1.000
    N5220    N        0.88619    0.22165    0.17999    1.000
    N5221    N        0.90725    0.16267    0.19636    1.000
    Si5222   Si       0.92309    0.20239    0.19272    1.000
    N5223    N        0.92722    0.13558    0.14012    1.000
    N5224    N        0.90651    0.05570    0.27006    1.000
    Si5225   Si       0.91330    0.11466    0.32448    1.000
    Si5226   Si       0.88811    0.03843    0.30569    1.000
    N5227    N        0.91973    0.02767    0.33710    1.000
    Si5228   Si       0.91365    0.09574    0.25434    1.000
    N5229    N        0.87579    0.09594    0.31677    1.000
    Si5230   Si       0.93278    0.02629    0.25143    1.000
    Si5231   Si       0.91092    0.25887    0.32874    1.000
    Si5232   Si       0.91580    0.19371    0.33481    1.000
    N5233    N        0.90757    0.15327    0.34633    1.000
    N5234    N        0.88915    0.18887    0.25539    1.000
    N5235    N        0.87783    0.21342    0.32066    1.000
    N5236    N        0.92065    0.25083    0.28663    1.000
    Si5237   Si       0.92447    0.21256    0.26656    1.000
    Si5238   Si       0.89848    0.07642    0.41298    1.000
    N5239    N        0.88005    0.11592    0.39986    1.000
    N5240    N        0.89781    0.07737    0.45545    1.000
    N5241    N        0.87639    0.05417    0.38429    1.000
    Si5242   Si       0.93194    0.00776    0.41900    1.000
    N5243    N        0.88192    0.20726    0.48064    1.000
    Si5244   Si       0.90815    0.14747    0.39002    1.000
    Si5245   Si       0.91169    0.19951    0.44829    1.000
    N5246    N        0.89188    0.17993    0.41576    1.000
    Si5247   Si       0.90702    0.02632    0.59446    1.000
    N5248    N        0.91525    0.04990    0.55893    1.000
    N5249    N        0.89422    0.11274    0.56903    1.000
    Si5250   Si       0.92154    0.02679    0.52306    1.000
    Si5251   Si       0.88850    0.09949    0.61045    1.000
    N5252    N        0.88316    0.02748    0.49905    1.000
    Si5253   Si       0.92754    0.09112    0.55134    1.000
    N5254    N        0.91312    0.17485    0.53515    1.000
    Si5255   Si       0.87797    0.19641    0.52266    1.000
    Si5256   Si       0.91037    0.25786    0.55096    1.000
    N5257    N        0.87498    0.23618    0.54251    1.000
    N5258    N        0.89809    0.05837    0.62318    1.000
    Si5259   Si       0.89548    0.04960    0.66769    1.000
    N5260    N        0.88570    0.12724    0.69105    1.000
    N5261    N        0.92250    0.12101    0.62851    1.000
    Si5262   Si       0.88562    0.24551    0.64870    1.000
    Si5263   Si       0.88559    0.13457    0.73390    1.000
    N5264    N        0.88685    0.23218    0.68990    1.000
    N5265    N        0.88809    0.17728    0.73209    1.000
    Si5266   Si       0.91054    0.19850    0.70258    1.000
    N5267    N        0.91884    0.18147    0.66362    1.000
    Si5268   Si       0.92175    0.13962    0.66862    1.000
    N5269    N        0.92749    0.24261    0.63446    1.000
    Si5270   Si       0.86880    0.25544    0.72159    1.000
    N5271    N        0.88059    0.04482    0.81576    1.000
    Si5272   Si       0.88916    0.07172    0.85055    1.000
    Si5273   Si       0.91390    0.01802    0.82186    1.000
    N5274    N        0.92876    0.04594    0.85770    1.000
    N5275    N        0.92112    0.11612    0.74888    1.000
    Si5276   Si       0.87559    0.13599    0.86241    1.000
    Si5277   Si       0.87233    0.20092    0.76430    1.000
    Si5278   Si       0.89293    0.20150    0.82313    1.000
    N5279    N        0.90418    0.16974    0.85177    1.000
    N5280    N        0.88952    0.24232    0.83875    1.000
    N5281    N        0.90972    0.21352    0.78217    1.000
    Si5282   Si       0.92403    0.24958    0.86342    1.000
    N5283    N        0.89842    0.10312    0.87997    1.000
    N5284    N        0.89809    0.02589    0.91526    1.000
    Si5285   Si       0.89274    0.09072    0.96717    1.000
    N5286    N        0.92738    0.08621    0.94328    1.000
    Si5287   Si       0.89122    0.22727    0.92132    1.000
    N5288    N        0.92260    0.21870    0.89390    1.000
    N5289    N        0.89025    0.13383    0.97666    1.000
    N5290    N        0.89490    0.19870    0.95366    1.000
    Si5291   Si       0.91674    0.16210    0.95631    1.000
    N5292    N        0.92761    0.14978    0.91458    1.000
    N5293    N        0.91352    0.33083    0.04542    1.000
    N5294    N        0.88117    0.31262    0.10414    1.000
    N5295    N        0.91400    0.37799    0.09526    1.000
    Si5296   Si       0.87530    0.31305    0.06165    1.000
    N5297    N        0.92448    0.27384    0.00819    1.000
    Si5298   Si       0.91050    0.31639    0.00602    1.000
    Si5299   Si       0.90079    0.42007    0.09652    1.000
    N5300    N        0.90087    0.43940    0.05807    1.000
    Si5301   Si       0.87616    0.47516    0.05333    1.000
    N5302    N        0.93309    0.44325    0.11753    1.000
    Si5303   Si       0.89489    0.38080    0.21248    1.000
    Si5304   Si       0.89974    0.34757    0.12134    1.000
    Si5305   Si       0.88523    0.27622    0.12893    1.000
    N5306    N        0.88530    0.27469    0.23287    1.000
    N5307    N        0.92689    0.26342    0.13338    1.000
    N5308    N        0.87511    0.28929    0.16905    1.000
    N5309    N        0.87679    0.34162    0.21664    1.000
    N5310    N        0.91021    0.45933    0.18470    1.000
    N5311    N        0.92465    0.39327    0.18564    1.000
    N5312    N        0.89996    0.31332    0.27969    1.000
    N5313    N        0.89028    0.34563    0.34509    1.000
    Si5314   Si       0.91681    0.32490    0.31629    1.000
    Si5315   Si       0.92015    0.28026    0.25693    1.000
    N5316    N        0.87404    0.27871    0.34099    1.000
    N5317    N        0.90362    0.39101    0.25566    1.000
    Si5318   Si       0.90068    0.44534    0.33065    1.000
    N5319    N        0.89870    0.46922    0.29435    1.000
    N5320    N        0.88953    0.40591    0.32057    1.000
    Si5321   Si       0.92386    0.39195    0.29332    1.000
    Si5322   Si       0.91313    0.37316    0.36962    1.000
    Si5323   Si       0.90159    0.34991    0.44055    1.000
    N5324    N        0.88911    0.31656    0.46391    1.000
    N5325    N        0.92681    0.34643    0.40329    1.000
    Si5326   Si       0.89186    0.41047    0.48535    1.000
    N5327    N        0.87797    0.49134    0.48108    1.000
    N5328    N        0.91727    0.38316    0.46437    1.000
    Si5329   Si       0.87446    0.47142    0.44172    1.000
    Si5330   Si       0.92814    0.43649    0.40074    1.000
    N5331    N        0.89643    0.40786    0.39211    1.000
    N5332    N        0.91353    0.47229    0.42269    1.000
    N5333    N        0.90714    0.28494    0.58591    1.000
    Si5334   Si       0.90907    0.32613    0.56693    1.000
    N5335    N        0.89238    0.34537    0.53254    1.000
    Si5336   Si       0.89209    0.31106    0.50549    1.000
    N5337    N        0.92393    0.29072    0.52703    1.000
    N5338    N        0.88070    0.34135    0.59806    1.000
    Si5339   Si       0.88718    0.38148    0.61047    1.000
    Si5340   Si       0.89819    0.44269    0.55225    1.000
    N5341    N        0.91639    0.43485    0.51351    1.000
    N5342    N        0.88847    0.40458    0.57367    1.000
    N5343    N        0.90177    0.32495    0.70031    1.000
    Si5344   Si       0.92325    0.30637    0.73191    1.000
    N5345    N        0.92411    0.38120    0.63126    1.000
    N5346    N        0.87500    0.28849    0.64527    1.000
    N5347    N        0.90515    0.26769    0.74167    1.000
    N5348    N        0.89225    0.39958    0.68805    1.000
    N5349    N        0.91683    0.44786    0.72921    1.000
    N5350    N        0.92438    0.50516    0.69809    1.000
    Si5351   Si       0.87803    0.42605    0.72298    1.000
    Si5352   Si       0.90179    0.33885    0.79464    1.000
    N5353    N        0.92592    0.35579    0.82535    1.000
    N5354    N        0.87534    0.30852    0.81089    1.000
    Si5355   Si       0.91339    0.44821    0.77223    1.000
    N5356    N        0.91566    0.48440    0.79568    1.000
    N5357    N        0.88213    0.43444    0.87138    1.000
    N5358    N        0.87364    0.43008    0.76657    1.000
    N5359    N        0.92819    0.29357    0.87328    1.000
    N5360    N        0.89419    0.26924    0.93218    1.000
    Si5361   Si       0.89344    0.36204    0.95001    1.000
    N5362    N        0.88804    0.33236    0.91839    1.000
    Si5363   Si       0.91868    0.30005    0.91657    1.000
    N5364    N        0.92030    0.35096    0.98148    1.000
    N5365    N        0.90862    0.39743    0.92957    1.000
    Si5366   Si       0.89897    0.48261    0.98481    1.000
    Si5367   Si       0.91829    0.42046    0.89373    1.000
    N5368    N        0.90186    0.50340    0.87436    1.000
    N5369    N        0.92058    0.44347    0.98384    1.000
    N5370    N        0.88466    0.49845    0.94550    1.000
    Si5371   Si       0.91694    0.49539    0.91466    1.000
    N5372    N        0.91153    0.57249    0.03613    1.000
    Si5373   Si       0.91422    0.59600    0.07312    1.000
    Si5374   Si       0.90909    0.52572    0.10709    1.000
    N5375    N        0.92202    0.56643    0.10372    1.000
    Si5376   Si       0.88726    0.58832    0.00243    1.000
    Si5377   Si       0.92651    0.53114    0.04064    1.000
    N5378    N        0.92425    0.51523    0.99994    1.000
    N5379    N        0.87645    0.61678    0.08579    1.000
    N5380    N        0.90057    0.51075    0.06773    1.000
    N5381    N        0.87259    0.70272    0.00912    1.000
    N5382    N        0.89059    0.63349    0.00580    1.000
    N5383    N        0.89501    0.68448    0.07257    1.000
    Si5384   Si       0.90401    0.70920    0.03876    1.000
    Si5385   Si       0.91689    0.69140    0.10997    1.000
    N5386    N        0.91282    0.75109    0.04559    1.000
    Si5387   Si       0.88122    0.52787    0.23352    1.000
    Si5388   Si       0.91782    0.62570    0.23886    1.000
    N5389    N        0.89746    0.54436    0.19722    1.000
    N5390    N        0.88104    0.62464    0.21301    1.000
    N5391    N        0.87426    0.51885    0.13317    1.000
    Si5392   Si       0.90494    0.70612    0.18090    1.000
    N5393    N        0.89093    0.68769    0.14452    1.000
    N5394    N        0.89963    0.69154    0.22291    1.000
    N5395    N        0.89439    0.74843    0.17809    1.000
    Si5396   Si       0.90476    0.57069    0.28537    1.000
    N5397    N        0.90937    0.53145    0.26670    1.000
    N5398    N        0.88856    0.61073    0.27130    1.000
    N5399    N        0.87755    0.56104    0.31707    1.000
    Si5400   Si       0.87412    0.56205    0.36033    1.000
    N5401    N        0.90222    0.63622    0.32895    1.000
    Si5402   Si       0.91072    0.74507    0.34021    1.000
    N5403    N        0.88076    0.67980    0.28971    1.000
    Si5404   Si       0.92307    0.66954    0.30540    1.000
    N5405    N        0.88897    0.75130    0.30455    1.000
    N5406    N        0.92161    0.70316    0.33815    1.000
    Si5407   Si       0.87095    0.63657    0.36251    1.000
    N5408    N        0.89415    0.52578    0.38131    1.000
    N5409    N        0.88389    0.60041    0.38200    1.000
    Si5410   Si       0.91244    0.51851    0.47865    1.000
    Si5411   Si       0.92160    0.61383    0.39916    1.000
    N5412    N        0.91997    0.60952    0.44277    1.000
    Si5413   Si       0.92692    0.51101    0.40855    1.000
    N5414    N        0.93006    0.53790    0.44188    1.000
    Si5415   Si       0.93293    0.57501    0.46857    1.000
    N5416    N        0.89499    0.76235    0.37651    1.000
    N5417    N        0.91166    0.71424    0.42455    1.000
    Si5418   Si       0.91856    0.75578    0.41431    1.000
    N5419    N        0.91945    0.65596    0.39123    1.000
    Si5420   Si       0.88883    0.68149    0.40741    1.000
    Si5421   Si       0.89723    0.64222    0.46714    1.000
    N5422    N        0.92841    0.66926    0.48109    1.000
    N5423    N        0.88705    0.59166    0.55544    1.000
    Si5424   Si       0.91573    0.57246    0.58074    1.000
    N5425    N        0.88126    0.62625    0.50330    1.000
    N5426    N        0.89211    0.56797    0.61951    1.000
    Si5427   Si       0.87373    0.58409    0.51375    1.000
    N5428    N        0.90088    0.55638    0.49478    1.000
    Si5429   Si       0.87870    0.63425    0.54818    1.000
    Si5430   Si       0.92085    0.64305    0.59600    1.000
    N5431    N        0.91544    0.65696    0.55355    1.000
    N5432    N        0.87829    0.63860    0.60966    1.000
    N5433    N        0.87890    0.55125    0.73110    1.000
    Si5434   Si       0.91859    0.53747    0.72614    1.000
    Si5435   Si       0.87745    0.53010    0.63098    1.000
    N5436    N        0.91169    0.50404    0.62873    1.000
    Si5437   Si       0.88039    0.74751    0.62144    1.000
    N5438    N        0.89002    0.68144    0.69151    1.000
    Si5439   Si       0.91380    0.69028    0.65335    1.000
    N5440    N        0.90130    0.74856    0.71131    1.000
    N5441    N        0.88260    0.70615    0.62831    1.000
    Si5442   Si       0.92526    0.67369    0.71833    1.000
    N5443    N        0.89541    0.61225    0.82124    1.000
    Si5444   Si       0.90309    0.54362    0.85646    1.000
    N5445    N        0.93401    0.55011    0.82749    1.000
    Si5446   Si       0.89424    0.65576    0.82529    1.000
    N5447    N        0.90865    0.65773    0.86556    1.000
    Si5448   Si       0.92218    0.74401    0.74738    1.000
    N5449    N        0.90798    0.64665    0.74862    1.000
    N5450    N        0.90911    0.57902    0.96269    1.000
    N5451    N        0.90922    0.57346    0.88855    1.000
    Si5452   Si       0.88462    0.58099    0.92349    1.000
    N5453    N        0.87597    0.62387    0.92388    1.000
    N5454    N        0.91859    0.68372    0.93252    1.000
    N5455    N        0.93035    0.74165    0.97971    1.000
    Si5456   Si       0.91129    0.72458    0.94649    1.000
    N5457    N        0.91282    0.75676    0.91417    1.000
    Si5458   Si       0.89362    0.66138    0.90495    1.000
    N5459    N        0.91756    0.86446    0.10143    1.000
    Si5460   Si       0.88110    0.81336    0.01681    1.000
    Si5461   Si       0.88045    0.85108    0.08487    1.000
    N5462    N        0.87953    0.76513    0.10592    1.000
    N5463    N        0.92478    0.80870    0.01069    1.000
    Si5464   Si       0.92022    0.76381    0.08637    1.000
    N5465    N        0.87254    0.81661    0.06044    1.000
    N5466    N        0.91431    0.93157    0.08103    1.000
    N5467    N        0.88094    0.94480    0.02479    1.000
    Si5468   Si       0.92048    0.94167    0.03938    1.000
    N5469    N        0.89684    0.81545    0.18631    1.000
    Si5470   Si       0.90936    0.77889    0.20386    1.000
    Si5471   Si       0.92372    0.84948    0.19181    1.000
    N5472    N        0.88727    0.77750    0.24165    1.000
    N5473    N        0.93060    0.99429    0.15064    1.000
    N5474    N        0.87616    0.91289    0.13147    1.000
    Si5475   Si       0.90592    0.92139    0.16264    1.000
    N5476    N        0.90096    0.95109    0.19356    1.000
    N5477    N        0.90340    0.88669    0.18624    1.000
    Si5478   Si       0.92723    0.98634    0.19287    1.000
    Si5479   Si       0.91159    0.84607    0.32205    1.000
    N5480    N        0.89109    0.82220    0.29282    1.000
    Si5481   Si       0.90542    0.78354    0.27990    1.000
    N5482    N        0.88209    0.84897    0.35348    1.000
    N5483    N        0.88350    0.87138    0.24537    1.000
    N5484    N        0.91442    0.88655    0.30494    1.000
    N5485    N        0.91493    0.95464    0.32469    1.000
    Si5486   Si       0.91196    0.89824    0.26340    1.000
    Si5487   Si       0.90739    0.97105    0.28501    1.000
    Si5488   Si       0.90513    0.91436    0.33689    1.000
    Si5489   Si       0.91099    0.98653    0.35288    1.000
    N5490    N        0.89101    0.93878    0.26091    1.000
    N5491    N        0.87497    0.99764    0.29003    1.000
    Si5492   Si       0.88410    0.84135    0.39606    1.000
    N5493    N        0.92279    0.84677    0.41324    1.000
    Si5494   Si       0.91924    0.77419    0.48831    1.000
    N5495    N        0.90697    0.78643    0.44359    1.000
    Si5496   Si       0.87573    0.99469    0.47077    1.000
    N5497    N        0.89026    0.00498    0.43182    1.000
    N5498    N        0.90025    0.96169    0.49132    1.000
    N5499    N        0.90140    0.86390    0.58344    1.000
    Si5500   Si       0.88376    0.76540    0.54417    1.000
    N5501    N        0.90201    0.75626    0.58537    1.000
    N5502    N        0.92640    0.76138    0.53046    1.000
    N5503    N        0.87407    0.77692    0.49921    1.000
    N5504    N        0.87191    0.80933    0.55362    1.000
    N5505    N        0.90897    0.93311    0.55913    1.000
    Si5506   Si       0.92565    0.95545    0.52692    1.000
    Si5507   Si       0.92735    0.89550    0.57113    1.000
    Si5508   Si       0.92790    0.75843    0.67825    1.000
    Si5509   Si       0.88931    0.81474    0.65198    1.000
    N5510    N        0.89885    0.77182    0.65105    1.000
    N5511    N        0.87267    0.82807    0.69032    1.000
    N5512    N        0.92832    0.82867    0.63828    1.000
    N5513    N        0.88381    0.94691    0.74048    1.000
    N5514    N        0.89501    0.00640    0.66587    1.000
    Si5515   Si       0.92667    0.98179    0.65085    1.000
    N5516    N        0.91394    0.93950    0.64884    1.000
    Si5517   Si       0.87384    0.92420    0.64753    1.000
    Si5518   Si       0.88756    0.80060    0.78573    1.000
    N5519    N        0.90606    0.86161    0.84202    1.000
    Si5520   Si       0.91328    0.81838    0.84375    1.000
    N5521    N        0.92533    0.81767    0.80094    1.000
    N5522    N        0.87379    0.82814    0.75852    1.000
    N5523    N        0.89133    0.76008    0.77424    1.000
    Si5524   Si       0.91569    0.91772    0.74638    1.000
    N5525    N        0.90468    0.89019    0.77776    1.000
    N5526    N        0.89439    0.98295    0.84050    1.000
    Si5527   Si       0.89450    0.89982    0.85871    1.000
    Si5528   Si       0.87615    0.98890    0.75223    1.000
    N5529    N        0.91262    0.00320    0.77222    1.000
    N5530    N        0.92658    0.92493    0.84424    1.000
    Si5531   Si       0.88708    0.86557    0.96948    1.000
    N5532    N        0.89726    0.81407    0.88458    1.000
    Si5533   Si       0.87516    0.84804    0.89859    1.000
    N5534    N        0.92893    0.85888    0.97051    1.000
    N5535    N        0.89583    0.99390    0.97528    1.000
    N5536    N        0.87649    0.95675    0.91375    1.000
    N5537    N        0.87817    0.90836    0.96609    1.000
    Si5538   Si       0.89575    0.92200    0.92888    1.000
    Si5539   Si       0.87708    0.99386    0.93509    1.000
    N5540    N        0.89442    0.88829    0.90065    1.000
    N5541    N        0.97513    0.09894    0.09627    1.000
    N5542    N        0.95815    0.10567    0.02211    1.000
    Si5543   Si       0.96464    0.12633    0.06104    1.000
    Si5544   Si       0.93691    0.06730    0.02000    1.000
    N5545    N        0.93126    0.04844    0.05743    1.000
    Si5546   Si       0.94121    0.20079    0.05146    1.000
    N5547    N        0.95414    0.22787    0.08366    1.000
    N5548    N        0.96515    0.21403    0.01780    1.000
    N5549    N        0.94328    0.16250    0.07055    1.000
    Si5550   Si       0.94419    0.09790    0.12526    1.000
    N5551    N        0.96849    0.09223    0.16266    1.000
    Si5552   Si       0.96817    0.07510    0.20512    1.000
    N5553    N        0.93118    0.09952    0.21350    1.000
    N5554    N        0.96770    0.04967    0.24292    1.000
    N5555    N        0.98885    0.03699    0.18343    1.000
    N5556    N        0.97340    0.15746    0.19304    1.000
    N5557    N        0.95365    0.21055    0.16151    1.000
    Si5558   Si       0.93604    0.13129    0.18279    1.000
    Si5559   Si       0.97729    0.24310    0.23437    1.000
    Si5560   Si       0.93580    0.22312    0.12351    1.000
    N5561    N        0.94208    0.21873    0.22736    1.000
    Si5562   Si       0.95051    0.05197    0.36134    1.000
    N5563    N        0.94322    0.09389    0.35063    1.000
    Si5564   Si       0.97999    0.12458    0.29459    1.000
    N5565    N        0.93723    0.11515    0.28781    1.000
    Si5566   Si       0.97424    0.12181    0.36921    1.000
    N5567    N        0.99256    0.04042    0.34905    1.000
    N5568    N        0.94168    0.19429    0.30156    1.000
    Si5569   Si       0.98369    0.19397    0.29642    1.000
    N5570    N        0.98663    0.15911    0.26853    1.000
    N5571    N        0.92483    0.22886    0.35858    1.000
    N5572    N        0.96030    0.10289    0.45044    1.000
    Si5573   Si       0.97610    0.02000    0.47566    1.000
    Si5574   Si       0.97508    0.07164    0.42393    1.000
    N5575    N        0.94198    0.04931    0.40557    1.000
    Si5576   Si       0.93155    0.08398    0.47888    1.000
    N5577    N        0.94856    0.04609    0.49457    1.000
    Si5578   Si       0.95341    0.23053    0.39048    1.000
    Si5579   Si       0.96265    0.14426    0.43894    1.000
    N5580    N        0.94952    0.14137    0.39872    1.000
    N5581    N        0.93604    0.16605    0.46630    1.000
    N5582    N        0.94051    0.22696    0.43518    1.000
    N5583    N        0.96377    0.10036    0.57511    1.000
    Si5584   Si       0.95633    0.13131    0.60485    1.000
    Si5585   Si       0.98179    0.00893    0.61002    1.000
    N5586    N        0.93526    0.11086    0.51333    1.000
    N5587    N        0.99268    0.03360    0.57245    1.000
    N5588    N        0.98916    0.25055    0.52520    1.000
    Si5589   Si       0.94589    0.18818    0.56058    1.000
    N5590    N        0.97503    0.17570    0.52973    1.000
    Si5591   Si       0.94198    0.15429    0.50768    1.000
    N5592    N        0.94743    0.17381    0.60045    1.000
    N5593    N        0.94166    0.23241    0.56332    1.000
    Si5594   Si       0.98302    0.24492    0.56673    1.000
    N5595    N        0.93746    0.06198    0.68609    1.000
    Si5596   Si       0.98007    0.05313    0.67599    1.000
    Si5597   Si       0.94134    0.09504    0.71718    1.000
    N5598    N        0.95719    0.12621    0.68883    1.000
    N5599    N        0.97122    0.08252    0.74662    1.000
    N5600    N        0.94871    0.21264    0.71896    1.000
    Si5601   Si       0.94670    0.20104    0.63619    1.000
    N5602    N        0.98550    0.19674    0.65599    1.000
    Si5603   Si       0.95668    0.11048    0.77627    1.000
    Si5604   Si       0.96268    0.07421    0.84986    1.000
    N5605    N        0.94608    0.08970    0.81259    1.000
    N5606    N        0.95882    0.23956    0.83951    1.000
    N5607    N        0.97167    0.17256    0.86084    1.000
    N5608    N        0.97808    0.14699    0.78389    1.000
    Si5609   Si       0.93289    0.23629    0.75377    1.000
    Si5610   Si       0.98976    0.20981    0.84512    1.000
    N5611    N        0.96470    0.25755    0.76959    1.000
    Si5612   Si       0.97746    0.12674    0.98829    1.000
    Si5613   Si       0.96254    0.06232    0.95256    1.000
    Si5614   Si       0.93579    0.02313    0.89291    1.000
    N5615    N        0.96696    0.10619    0.87844    1.000
    N5616    N        0.95148    0.03931    0.98849    1.000
    N5617    N        0.96945    0.04245    0.91412    1.000
    Si5618   Si       0.93199    0.10845    0.90655    1.000
    Si5619   Si       0.98570    0.18846    0.98707    1.000
    N5620    N        0.95398    0.16103    0.97828    1.000
    Si5621   Si       0.93350    0.17784    0.88084    1.000
    N5622    N        0.97658    0.34890    0.07441    1.000
    N5623    N        0.98135    0.33508    0.00785    1.000
    Si5624   Si       0.93677    0.36277    0.06269    1.000
    N5625    N        0.98121    0.27790    0.04896    1.000
    Si5626   Si       0.95538    0.36970    0.99815    1.000
    Si5627   Si       0.96532    0.25734    0.01649    1.000
    N5628    N        0.96967    0.45439    0.02892    1.000
    N5629    N        0.94097    0.39212    0.03209    1.000
    Si5630   Si       0.93042    0.43370    0.02684    1.000
    N5631    N        0.95863    0.28393    0.23859    1.000
    N5632    N        0.96998    0.35072    0.20647    1.000
    Si5633   Si       0.95641    0.29297    0.14234    1.000
    Si5634   Si       0.94914    0.36257    0.16993    1.000
    N5635    N        0.98257    0.29095    0.17689    1.000
    Si5636   Si       0.98208    0.30991    0.21570    1.000
    N5637    N        0.93239    0.33103    0.14539    1.000
    N5638    N        0.97682    0.38198    0.14124    1.000
    Si5639   Si       0.97117    0.42377    0.12986    1.000
    N5640    N        0.97028    0.44802    0.16897    1.000
    Si5641   Si       0.93605    0.47329    0.15064    1.000
    N5642    N        0.96671    0.41989    0.23017    1.000
    Si5643   Si       0.94036    0.43031    0.19852    1.000
    N5644    N        0.94631    0.35684    0.30640    1.000
    N5645    N        0.93658    0.29329    0.33682    1.000
    Si5646   Si       0.97101    0.29131    0.36226    1.000
    Si5647   Si       0.98544    0.35383    0.32743    1.000
    N5648    N        0.98201    0.33204    0.36526    1.000
    N5649    N        0.95486    0.38968    0.36206    1.000
    N5650    N        0.95298    0.42556    0.29833    1.000
    Si5651   Si       0.96507    0.48082    0.35272    1.000
    Si5652   Si       0.97472    0.41958    0.33791    1.000
    Si5653   Si       0.97397    0.44485    0.26494    1.000
    N5654    N        0.96302    0.48592    0.25597    1.000
    N5655    N        0.95549    0.50412    0.31773    1.000
    N5656    N        0.93502    0.45164    0.35879    1.000
    Si5657   Si       0.93148    0.49756    0.28218    1.000
    N5658    N        0.97116    0.29458    0.47047    1.000
    N5659    N        0.97939    0.35994    0.43709    1.000
    Si5660   Si       0.97291    0.36187    0.39433    1.000
    N5661    N        0.96283    0.27318    0.40013    1.000
    Si5662   Si       0.96925    0.25936    0.44133    1.000
    Si5663   Si       0.96034    0.39142    0.46292    1.000
    N5664    N        0.97802    0.42875    0.48444    1.000
    N5665    N        0.96161    0.42232    0.42441    1.000
    N5666    N        0.94811    0.34454    0.57225    1.000
    Si5667   Si       0.96443    0.28418    0.51239    1.000
    Si5668   Si       0.97671    0.35247    0.53976    1.000
    N5669    N        0.98004    0.27546    0.59526    1.000
    Si5670   Si       0.95379    0.35286    0.61526    1.000
    Si5671   Si       0.94040    0.28004    0.61473    1.000
    N5672    N        0.97741    0.36501    0.49704    1.000
    Si5673   Si       0.95427    0.45694    0.50971    1.000
    Si5674   Si       0.97317    0.46269    0.57951    1.000
    N5675    N        0.97247    0.49885    0.60722    1.000
    N5676    N        0.94563    0.49928    0.50078    1.000
    N5677    N        0.98390    0.43497    0.61024    1.000
    Si5678   Si       0.93174    0.50534    0.58854    1.000
    N5679    N        0.93024    0.46664    0.57094    1.000
    N5680    N        0.96207    0.29942    0.71448    1.000
    N5681    N        0.96452    0.36474    0.68409    1.000
    N5682    N        0.94376    0.31610    0.63889    1.000
    Si5683   Si       0.96494    0.32165    0.67812    1.000
    N5684    N        0.97723    0.47284    0.74180    1.000
    N5685    N        0.95530    0.42669    0.67937    1.000
    Si5686   Si       0.98435    0.44532    0.65007    1.000
    Si5687   Si       0.94792    0.46577    0.70630    1.000
    N5688    N        0.97908    0.48215    0.67233    1.000
    Si5689   Si       0.98809    0.39998    0.69261    1.000
    Si5690   Si       0.93054    0.39234    0.67223    1.000
    N5691    N        0.97257    0.30796    0.82197    1.000
    Si5692   Si       0.94747    0.32705    0.85199    1.000
    Si5693   Si       0.97569    0.33477    0.78612    1.000
    Si5694   Si       0.97456    0.26477    0.81068    1.000
    N5695    N        0.93587    0.32798    0.76728    1.000
    N5696    N        0.98606    0.37414    0.80397    1.000
    Si5697   Si       0.98116    0.43473    0.76322    1.000
    N5698    N        0.94575    0.41080    0.85960    1.000
    Si5699   Si       0.94744    0.39457    0.81760    1.000
    N5700    N        0.94692    0.42383    0.78683    1.000
    N5701    N        0.98336    0.50753    0.80371    1.000
    N5702    N        0.96995    0.34927    0.88179    1.000
    N5703    N        0.95638    0.30406    0.93555    1.000
    Si5704   Si       0.98346    0.31304    0.97165    1.000
    Si5705   Si       0.98861    0.32241    0.90861    1.000
    N5706    N        0.97417    0.40695    0.92096    1.000
    Si5707   Si       0.94279    0.42221    0.95113    1.000
    Si5708   Si       0.97779    0.39312    0.88069    1.000
    N5709    N        0.97569    0.40004    0.97905    1.000
    N5710    N        0.93001    0.45465    0.91784    1.000
    N5711    N        0.96706    0.52678    0.05596    1.000
    N5712    N        0.94111    0.62922    0.05983    1.000
    N5713    N        0.98663    0.57263    0.11184    1.000
    Si5714   Si       0.97138    0.65807    0.07950    1.000
    Si5715   Si       0.97867    0.71201    0.03278    1.000
    N5716    N        0.94107    0.69037    0.02588    1.000
    Si5717   Si       0.98272    0.72733    0.10691    1.000
    N5718    N        0.93850    0.73059    0.10715    1.000
    N5719    N        0.97594    0.75390    0.02988    1.000
    N5720    N        0.95129    0.66573    0.11814    1.000
    Si5721   Si       0.92937    0.64739    0.02209    1.000
    N5722    N        0.98690    0.69852    0.07433    1.000
    Si5723   Si       0.95245    0.55804    0.13380    1.000
    Si5724   Si       0.93934    0.55936    0.20254    1.000
    N5725    N        0.94770    0.58448    0.16917    1.000
    N5726    N        0.97386    0.53442    0.20681    1.000
    Si5727   Si       0.97374    0.61358    0.18588    1.000
    N5728    N        0.93886    0.58521    0.23722    1.000
    N5729    N        0.94010    0.51467    0.13631    1.000
    Si5730   Si       0.97271    0.67985    0.15255    1.000
    Si5731   Si       0.94430    0.68085    0.22567    1.000
    N5732    N        0.98103    0.70324    0.23572    1.000
    Si5733   Si       0.97478    0.73474    0.20191    1.000
    N5734    N        0.94863    0.70341    0.18015    1.000
    N5735    N        0.94720    0.64118    0.20753    1.000
    Si5736   Si       0.96785    0.58353    0.26934    1.000
    N5737    N        0.94321    0.58417    0.30407    1.000
    Si5738   Si       0.94011    0.61383    0.33496    1.000
    N5739    N        0.99166    0.54759    0.27043    1.000
    N5740    N        0.96120    0.65406    0.32994    1.000
    Si5741   Si       0.94775    0.67798    0.36384    1.000
    N5742    N        0.93628    0.65874    0.26572    1.000
    Si5743   Si       0.97551    0.74372    0.37106    1.000
    N5744    N        0.95430    0.60051    0.37428    1.000
    N5745    N        0.96386    0.50879    0.38788    1.000
    Si5746   Si       0.98602    0.73925    0.46160    1.000
    N5747    N        0.94394    0.74066    0.47393    1.000
    N5748    N        0.98536    0.69724    0.44738    1.000
    Si5749   Si       0.94091    0.70031    0.45451    1.000
    N5750    N        0.98302    0.70204    0.37443    1.000
    N5751    N        0.94197    0.60513    0.59314    1.000
    N5752    N        0.96331    0.62194    0.51661    1.000
    Si5753   Si       0.95982    0.52976    0.52542    1.000
    Si5754   Si       0.98182    0.60079    0.60923    1.000
    N5755    N        0.93306    0.53730    0.56063    1.000
    N5756    N        0.96672    0.56065    0.49456    1.000
    Si5757   Si       0.94446    0.66115    0.52089    1.000
    N5758    N        0.97353    0.69342    0.52955    1.000
    Si5759   Si       0.96523    0.73810    0.52543    1.000
    N5760    N        0.97539    0.75099    0.56904    1.000
    Si5761   Si       0.94269    0.50784    0.65907    1.000
    N5762    N        0.96578    0.54554    0.65448    1.000
    Si5763   Si       0.97224    0.58042    0.68210    1.000
    N5764    N        0.94091    0.57240    0.71000    1.000
    N5765    N        0.98223    0.60755    0.65149    1.000
    Si5766   Si       0.97001    0.64905    0.65699    1.000
    N5767    N        0.94243    0.71959    0.66433    1.000
    N5768    N        0.96221    0.65478    0.70018    1.000
    N5769    N        0.93539    0.66051    0.63222    1.000
    Si5770   Si       0.98560    0.71408    0.66399    1.000
    N5771    N        0.95834    0.61242    0.84959    1.000
    N5772    N        0.94990    0.60067    0.77847    1.000
    N5773    N        0.94779    0.53453    0.75836    1.000
    Si5774   Si       0.94206    0.51836    0.79828    1.000
    Si5775   Si       0.96655    0.57389    0.74782    1.000
    Si5776   Si       0.93352    0.59330    0.81742    1.000
    Si5777   Si       0.94597    0.64313    0.77202    1.000
    Si5778   Si       0.94982    0.65883    0.84931    1.000
    Si5779   Si       0.98193    0.72570    0.74463    1.000
    N5780    N        0.98941    0.65537    0.76430    1.000
    N5781    N        0.93267    0.66298    0.80844    1.000
    N5782    N        0.94189    0.70508    0.74278    1.000
    Si5783   Si       0.93612    0.54180    0.96910    1.000
    Si5784   Si       0.94836    0.59345    0.88825    1.000
    Si5785   Si       0.98257    0.52939    0.91271    1.000
    N5786    N        0.98186    0.56909    0.89816    1.000
    N5787    N        0.96802    0.56996    0.97668    1.000
    Si5788   Si       0.94691    0.60547    0.96146    1.000
    N5789    N        0.95009    0.62148    0.92122    1.000
    N5790    N        0.94465    0.52042    0.93361    1.000
    Si5791   Si       0.95832    0.66361    0.92477    1.000
    N5792    N        0.96730    0.67848    0.88453    1.000
    N5793    N        0.95720    0.63903    0.98781    1.000
    N5794    N        0.96933    0.84646    0.04221    1.000
    N5795    N        0.93914    0.80185    0.08895    1.000
    Si5796   Si       0.97931    0.81540    0.07170    1.000
    Si5797   Si       0.93841    0.76850    0.01330    1.000
    Si5798   Si       0.95821    0.83713    0.99878    1.000
    N5799    N        0.98853    0.83343    0.10913    1.000
    Si5800   Si       0.97968    0.88888    0.04566    1.000
    N5801    N        0.97735    0.89475    0.08858    1.000
    N5802    N        0.94919    0.91289    0.02807    1.000
    N5803    N        0.96409    0.99152    0.09075    1.000
    Si5804   Si       0.93785    0.90305    0.10522    1.000
    N5805    N        0.93251    0.98365    0.03172    1.000
    Si5806   Si       0.93111    0.00663    0.06954    1.000
    Si5807   Si       0.94618    0.83424    0.11797    1.000
    N5808    N        0.95117    0.77061    0.20852    1.000
    Si5809   Si       0.96477    0.80078    0.23910    1.000
    N5810    N        0.95174    0.84706    0.15898    1.000
    N5811    N        0.95146    0.84019    0.22398    1.000
    Si5812   Si       0.97700    0.87439    0.24286    1.000
    N5813    N        0.94375    0.92843    0.13899    1.000
    N5814    N        0.96848    0.97180    0.20458    1.000
    Si5815   Si       0.95715    0.96815    0.12741    1.000
    Si5816   Si       0.96492    0.95289    0.24256    1.000
    N5817    N        0.95099    0.90959    0.24641    1.000
    N5818    N        0.95351    0.84645    0.34486    1.000
    N5819    N        0.94814    0.78843    0.27606    1.000
    Si5820   Si       0.97741    0.77444    0.30685    1.000
    N5821    N        0.95311    0.76085    0.33900    1.000
    N5822    N        0.94122    0.98465    0.26388    1.000
    N5823    N        0.92855    0.90488    0.37257    1.000
    N5824    N        0.98619    0.87798    0.40096    1.000
    Si5825   Si       0.93367    0.82471    0.45073    1.000
    Si5826   Si       0.94700    0.86710    0.38306    1.000
    N5827    N        0.97525    0.82062    0.44628    1.000
    N5828    N        0.95987    0.76380    0.40565    1.000
    Si5829   Si       0.95116    0.93954    0.38884    1.000
    N5830    N        0.93647    0.97934    0.38641    1.000
    Si5831   Si       0.93853    0.95298    0.46726    1.000
    N5832    N        0.95057    0.99331    0.45588    1.000
    N5833    N        0.95541    0.93169    0.43267    1.000
    N5834    N        0.94695    0.81632    0.56692    1.000
    Si5835   Si       0.95324    0.83553    0.52912    1.000
    Si5836   Si       0.93928    0.77429    0.57092    1.000
    Si5837   Si       0.93695    0.84311    0.59889    1.000
    N5838    N        0.94758    0.87849    0.53448    1.000
    N5839    N        0.93436    0.81638    0.49417    1.000
    N5840    N        0.95739    0.88178    0.60429    1.000
    N5841    N        0.94375    0.99319    0.53975    1.000
    Si5842   Si       0.97648    0.89760    0.50922    1.000
    Si5843   Si       0.98674    0.99761    0.54315    1.000
    N5844    N        0.95671    0.93621    0.50312    1.000
    N5845    N        0.93863    0.00209    0.61413    1.000
    N5846    N        0.97711    0.85992    0.67772    1.000
    N5847    N        0.95750    0.78983    0.68420    1.000
    Si5848   Si       0.96648    0.82187    0.65905    1.000
    Si5849   Si       0.97534    0.79824    0.72399    1.000
    Si5850   Si       0.97159    0.87537    0.71788    1.000
    N5851    N        0.96407    0.83797    0.74138    1.000
    N5852    N        0.95431    0.97550    0.68339    1.000
    N5853    N        0.98253    0.92263    0.65605    1.000
    Si5854   Si       0.98032    0.88490    0.64057    1.000
    Si5855   Si       0.98792    0.98740    0.70854    1.000
    N5856    N        0.93993    0.90692    0.71361    1.000
    Si5857   Si       0.94614    0.93176    0.67863    1.000
    Si5858   Si       0.95826    0.83747    0.78446    1.000
    N5859    N        0.94979    0.79621    0.85818    1.000
    N5860    N        0.96546    0.87335    0.80715    1.000
    N5861    N        0.95929    0.76567    0.74544    1.000
    Si5862   Si       0.93402    0.96568    0.85247    1.000
    N5863    N        0.95077    0.99030    0.82053    1.000
    N5864    N        0.94523    0.93272    0.77748    1.000
    Si5865   Si       0.94546    0.97667    0.77977    1.000
    N5866    N        0.97864    0.97862    0.75044    1.000
    Si5867   Si       0.93535    0.90278    0.80736    1.000
    Si5868   Si       0.98613    0.93213    0.76458    1.000
    N5869    N        0.96306    0.80957    0.92163    1.000
    Si5870   Si       0.93237    0.79200    0.89774    1.000
    N5871    N        0.98616    0.87550    0.91768    1.000
    N5872    N        0.98820    0.80467    0.98884    1.000
    N5873    N        0.98663    0.87209    0.98669    1.000
    Si5874   Si       0.96084    0.88535    0.95273    1.000
    Si5875   Si       0.93656    0.99914    0.98911    1.000
    N5876    N        0.96438    0.97864    0.96291    1.000
    Si5877   Si       0.96105    0.95677    0.92506    1.000
    N5878    N        0.93988    0.92281    0.93980    1.000
    N5879    N        0.94358    0.97939    0.89239    1.000
