# CIF file generated by openbabel 3.1.1, see https://openbabel.org
data_I
_chemical_name_common '3.01-81.aims'
_cell_length_a 39.9721
_cell_length_b 39.9721
_cell_length_c 39.9721
_cell_angle_alpha 90
_cell_angle_beta 90
_cell_angle_gamma 90
loop_
    _atom_site_label
    _atom_site_type_symbol
    _atom_site_fract_x
    _atom_site_fract_y
    _atom_site_fract_z
    _atom_site_occupancy
    N0       N        0.01832    0.09688    0.02373    1.000
    N1       N        0.01171    0.02956    0.04999    1.000
    Si2      Si       0.03662    0.04109    0.08411    1.000
    N3       N        0.01088    0.05450    0.11441    1.000
    Si4      Si       0.99196    0.06047    0.02753    1.000
    N5       N        0.03249    0.13456    0.08215    1.000
    Si6      Si       0.00686    0.13565    0.00846    1.000
    N7       N        0.01049    0.17262    0.03132    1.000
    N8       N        0.01153    0.20261    0.09747    1.000
    Si9      Si       0.01933    0.21405    0.02222    1.000
    Si10     Si       0.00276    0.16619    0.07464    1.000
    Si11     Si       0.02395    0.23889    0.07636    1.000
    N12      N        0.99218    0.23701    0.04505    1.000
    N13      N        0.00078    0.09627    0.17438    1.000
    N14      N        0.99948    0.04541    0.23045    1.000
    Si15     Si       0.03396    0.02242    0.21501    1.000
    Si16     Si       0.04461    0.09091    0.17819    1.000
    Si17     Si       0.01286    0.12969    0.23208    1.000
    N18      N        0.00642    0.17047    0.21650    1.000
    Si19     Si       0.00458    0.19640    0.14062    1.000
    N20      N        0.00729    0.15338    0.13962    1.000
    Si21     Si       0.03828    0.19690    0.20451    1.000
    N22      N        0.02400    0.23574    0.21847    1.000
    N23      N        0.04251    0.20654    0.16218    1.000
    Si24     Si       0.04605    0.13814    0.12323    1.000
    Si25     Si       0.03026    0.10863    0.35527    1.000
    Si26     Si       1.00000    0.05223    0.27246    1.000
    N27      N        0.02124    0.06448    0.36162    1.000
    N28      N        0.04202    0.06622    0.27843    1.000
    N29      N        0.98926    0.02034    0.30010    1.000
    N30      N        0.02596    0.13304    0.27296    1.000
    N31      N        0.00174    0.13612    0.33915    1.000
    Si32     Si       0.99665    0.22542    0.25434    1.000
    Si33     Si       0.01435    0.15973    0.30571    1.000
    Si34     Si       0.02476    0.21872    0.32552    1.000
    N35      N        0.99918    0.20257    0.29289    1.000
    N36      N        0.01282    0.22450    0.36649    1.000
    N37      N        0.01148    0.11836    0.46458    1.000
    Si38     Si       0.00501    0.12597    0.41961    1.000
    N39      N        0.04130    0.12324    0.39529    1.000
    Si40     Si       0.03645    0.09216    0.49260    1.000
    N41      N        0.04482    0.00790    0.39687    1.000
    N42      N        0.03792    0.04968    0.50040    1.000
    N43      N        0.04004    0.17337    0.45648    1.000
    Si44     Si       0.04021    0.21660    0.45178    1.000
    N45      N        0.00666    0.23770    0.43474    1.000
    Si46     Si       0.02980    0.24774    0.39943    1.000
    Si47     Si       0.00753    0.15870    0.48185    1.000
    N48      N        0.01733    0.10531    0.53065    1.000
    Si49     Si       0.99746    0.03571    0.51369    1.000
    Si50     Si       0.98947    0.13064    0.60944    1.000
    Si51     Si       0.02586    0.14536    0.55269    1.000
    N52      N        0.02265    0.17474    0.52141    1.000
    N53      N        0.02350    0.22946    0.59952    1.000
    N54      N        0.02820    0.15770    0.60208    1.000
    Si55     Si       0.01717    0.07678    0.62631    1.000
    N56      N        0.04432    0.00959    0.69875    1.000
    N57      N        0.03635    0.07193    0.69582    1.000
    N58      N        0.02138    0.03508    0.63635    1.000
    N59      N        0.00938    0.11315    0.65047    1.000
    Si60     Si       0.02489    0.11310    0.68980    1.000
    Si61     Si       0.00774    0.03559    0.70681    1.000
    N62      N        0.99582    0.12359    0.72142    1.000
    Si63     Si       0.99037    0.16435    0.74025    1.000
    Si64     Si       0.00250    0.22421    0.68568    1.000
    N65      N        0.03347    0.25319    0.67874    1.000
    N66      N        0.99612    0.19861    0.65126    1.000
    Si67     Si       0.02985    0.19436    0.62391    1.000
    N68      N        0.00604    0.19653    0.71667    1.000
    Si69     Si       0.02109    0.06131    0.83455    1.000
    N70      N        0.01102    0.09549    0.86156    1.000
    N71      N        0.01081    0.03281    0.75102    1.000
    Si72     Si       0.03205    0.13073    0.84791    1.000
    N73      N        0.02925    0.02994    0.86502    1.000
    N74      N        0.02251    0.22487    0.81580    1.000
    N75      N        0.01333    0.16689    0.77651    1.000
    N76      N        0.00228    0.16236    0.84733    1.000
    Si77     Si       0.00008    0.18842    0.81153    1.000
    N78      N        0.03255    0.04069    0.94210    1.000
    Si79     Si       0.99048    0.04357    0.95130    1.000
    Si80     Si       0.05016    0.03316    0.90369    1.000
    Si81     Si       0.03713    0.25602    0.96567    1.000
    Si82     Si       0.03795    0.18011    0.95774    1.000
    N83      N        0.01686    0.18178    0.92062    1.000
    N84      N        0.03253    0.21561    0.98158    1.000
    Si85     Si       0.03482    0.23763    0.89249    1.000
    N86      N        0.03929    0.14421    0.98145    1.000
    N87      N        0.99059    0.23435    0.89499    1.000
    N88      N        0.03181    0.27720    0.09338    1.000
    N89      N        0.99726    0.32352    0.05006    1.000
    Si90     Si       0.03515    0.31425    0.06731    1.000
    N91      N        0.04286    0.34561    0.09580    1.000
    Si92     Si       0.99540    0.28724    0.11889    1.000
    Si93     Si       0.01064    0.36437    0.11963    1.000
    N94      N        0.02039    0.38637    0.02009    1.000
    Si95     Si       0.01084    0.42846    0.01784    1.000
    Si96     Si       0.02899    0.49599    0.02046    1.000
    N97      N        0.03714    0.42561    0.09910    1.000
    Si98     Si       0.99561    0.43141    0.09398    1.000
    N99      N        0.04182    0.45667    0.00750    1.000
    N100     N        0.99010    0.44524    0.05321    1.000
    N101     N        0.03152    0.50531    0.06260    1.000
    N102     N        0.99905    0.26206    0.15261    1.000
    N103     N        0.01889    0.30148    0.20320    1.000
    N104     N        0.99461    0.32735    0.13800    1.000
    Si105    Si       0.03178    0.26196    0.18277    1.000
    Si106    Si       0.98772    0.32061    0.18017    1.000
    Si107    Si       0.02354    0.29537    0.24455    1.000
    N108     N        0.02503    0.40702    0.22123    1.000
    N109     N        0.02382    0.38670    0.15529    1.000
    N110     N        0.03083    0.45885    0.17902    1.000
    Si111    Si       0.03290    0.44926    0.22172    1.000
    N112     N        0.01213    0.48217    0.23889    1.000
    Si113    Si       0.99801    0.39554    0.18955    1.000
    N114     N        0.01043    0.32666    0.27217    1.000
    Si115    Si       0.03295    0.29614    0.34457    1.000
    Si116    Si       0.03716    0.35682    0.29116    1.000
    N117     N        0.99498    0.26718    0.26534    1.000
    N118     N        0.98966    0.29952    0.33687    1.000
    N119     N        0.04194    0.25931    0.32061    1.000
    N120     N        0.03332    0.50397    0.36126    1.000
    N121     N        0.02627    0.40801    0.35880    1.000
    N122     N        0.01690    0.39439    0.29228    1.000
    N123     N        0.01367    0.46213    0.30773    1.000
    Si124    Si       0.03353    0.42428    0.31787    1.000
    Si125    Si       0.03781    0.49800    0.31896    1.000
    N126     N        0.04278    0.28509    0.38543    1.000
    N127     N        0.99634    0.33183    0.45286    1.000
    N128     N        0.03404    0.35139    0.40011    1.000
    Si129    Si       0.00098    0.36404    0.42407    1.000
    Si130    Si       0.01954    0.33216    0.49197    1.000
    Si131    Si       0.03283    0.47881    0.46818    1.000
    N132     N        0.98993    0.46938    0.46051    1.000
    Si133    Si       0.01614    0.40898    0.48641    1.000
    N134     N        0.99918    0.40099    0.44641    1.000
    N135     N        0.03824    0.44561    0.49537    1.000
    N136     N        0.01086    0.31402    0.59985    1.000
    Si137    Si       0.03139    0.35255    0.59828    1.000
    Si138    Si       0.00610    0.29833    0.55669    1.000
    N139     N        0.03603    0.37247    0.49920    1.000
    N140     N        0.99959    0.38253    0.60586    1.000
    N141     N        0.99101    0.32623    0.52548    1.000
    N142     N        0.01836    0.45329    0.56403    1.000
    Si143    Si       0.04028    0.48809    0.58472    1.000
    Si144    Si       0.02739    0.28644    0.70472    1.000
    Si145    Si       0.02196    0.35004    0.66854    1.000
    N146     N        0.98971    0.29128    0.72688    1.000
    N147     N        0.98683    0.32485    0.66753    1.000
    Si148    Si       0.01185    0.41146    0.63647    1.000
    Si149    Si       0.99166    0.46207    0.67957    1.000
    N150     N        0.98833    0.44663    0.63905    1.000
    N151     N        0.03568    0.46382    0.68515    1.000
    N152     N        0.00885    0.39157    0.67312    1.000
    N153     N        0.02782    0.40424    0.73867    1.000
    Si154    Si       0.99461    0.39569    0.71347    1.000
    N155     N        0.02911    0.29151    0.79966    1.000
    Si156    Si       0.00682    0.30740    0.76403    1.000
    N157     N        0.03238    0.34266    0.76117    1.000
    N158     N        0.02735    0.37237    0.81761    1.000
    Si159    Si       0.01261    0.26537    0.82962    1.000
    N160     N        0.03866    0.26990    0.86472    1.000
    Si161    Si       0.04777    0.33371    0.80191    1.000
    Si162    Si       0.02061    0.39823    0.78272    1.000
    N163     N        0.01318    0.44203    0.78957    1.000
    Si164    Si       0.02963    0.34966    0.92311    1.000
    N165     N        0.99966    0.27415    0.95490    1.000
    Si166    Si       0.03289    0.37478    0.97855    1.000
    N167     N        0.00638    0.37979    0.87517    1.000
    N168     N        0.99186    0.32815    0.91419    1.000
    N169     N        0.04528    0.33541    0.96060    1.000
    N170     N        0.01996    0.38853    0.93909    1.000
    Si171    Si       0.00842    0.41135    0.90404    1.000
    N172     N        0.01356    0.50037    0.94043    1.000
    Si173    Si       0.02229    0.48279    0.90179    1.000
    N174     N        0.03710    0.44045    0.89461    1.000
    N175     N        0.99035    0.48358    0.87386    1.000
    N176     N        0.99843    0.55056    0.10922    1.000
    N177     N        0.02606    0.60919    0.09088    1.000
    Si178    Si       0.99520    0.52959    0.06998    1.000
    Si179    Si       0.01695    0.62749    0.00992    1.000
    N180     N        0.99437    0.56264    0.04306    1.000
    Si181    Si       0.00419    0.55652    0.00225    1.000
    Si182    Si       0.03531    0.57360    0.11724    1.000
    N183     N        0.03959    0.52892    0.99468    1.000
    N184     N        0.00678    0.61520    0.21507    1.000
    N185     N        0.99659    0.54834    0.22562    1.000
    N186     N        0.02931    0.57818    0.16019    1.000
    Si187    Si       0.99804    0.57866    0.19182    1.000
    Si188    Si       0.01108    0.51213    0.20690    1.000
    N189     N        0.04663    0.51917    0.18388    1.000
    Si190    Si       0.04818    0.61779    0.23114    1.000
    N191     N        0.04194    0.72885    0.12768    1.000
    Si192    Si       0.04248    0.68654    0.12372    1.000
    N193     N        0.00534    0.67373    0.14139    1.000
    Si194    Si       0.00873    0.75704    0.12540    1.000
    N195     N        0.01124    0.52722    0.30091    1.000
    Si196    Si       0.00640    0.56563    0.31973    1.000
    N197     N        0.04387    0.58547    0.32420    1.000
    N198     N        0.05525    0.62540    0.27384    1.000
    N199     N        0.01268    0.68006    0.31776    1.000
    Si200    Si       0.01266    0.74384    0.26120    1.000
    Si201    Si       0.04876    0.70043    0.30807    1.000
    Si202    Si       0.99842    0.52581    0.37752    1.000
    N203     N        0.01413    0.51876    0.49124    1.000
    N204     N        0.01606    0.61938    0.42348    1.000
    N205     N        0.02385    0.53795    0.41180    1.000
    Si206    Si       0.03306    0.57754    0.42358    1.000
    Si207    Si       0.04299    0.62050    0.46959    1.000
    N208     N        0.04321    0.57707    0.46499    1.000
    N209     N        0.03269    0.72875    0.40183    1.000
    N210     N        0.00934    0.64585    0.48399    1.000
    Si211    Si       0.01694    0.68891    0.48664    1.000
    N212     N        0.00352    0.71590    0.45397    1.000
    Si213    Si       0.03562    0.74392    0.44174    1.000
    Si214    Si       0.98887    0.74715    0.48441    1.000
    N215     N        0.00800    0.58848    0.58653    1.000
    N216     N        0.01052    0.51868    0.58356    1.000
    Si217    Si       0.99790    0.57548    0.54477    1.000
    Si218    Si       0.00792    0.55194    0.61039    1.000
    N219     N        0.03662    0.56841    0.53113    1.000
    Si220    Si       0.01535    0.62914    0.60000    1.000
    Si221    Si       0.01662    0.73435    0.55444    1.000
    N222     N        0.00160    0.71956    0.51600    1.000
    N223     N        0.98681    0.64847    0.57487    1.000
    N224     N        0.98420    0.72795    0.58148    1.000
    N225     N        0.00094    0.55137    0.70436    1.000
    N226     N        0.02172    0.62420    0.64627    1.000
    N227     N        0.04023    0.55636    0.63879    1.000
    Si228    Si       0.04284    0.55129    0.71217    1.000
    Si229    Si       0.00719    0.66322    0.66107    1.000
    N230     N        0.99818    0.74544    0.71714    1.000
    N231     N        0.04471    0.74764    0.66195    1.000
    Si232    Si       0.99575    0.70313    0.70450    1.000
    N233     N        0.03369    0.68348    0.68955    1.000
    N234     N        0.01240    0.68099    0.62146    1.000
    N235     N        0.01567    0.53758    0.83444    1.000
    Si236    Si       0.02245    0.58011    0.84251    1.000
    N237     N        0.04421    0.60568    0.81283    1.000
    N238     N        0.03729    0.63455    0.75035    1.000
    N239     N        0.99883    0.71868    0.78397    1.000
    Si240    Si       0.03797    0.71011    0.79070    1.000
    Si241    Si       0.99225    0.63176    0.75353    1.000
    Si242    Si       0.99030    0.75393    0.75724    1.000
    N243     N        0.02602    0.63297    0.87047    1.000
    N244     N        0.04589    0.68395    0.82496    1.000
    N245     N        0.02314    0.59274    0.98607    1.000
    N246     N        0.01763    0.66155    0.98406    1.000
    Si247    Si       0.02584    0.65722    0.94160    1.000
    Si248    Si       0.04268    0.69968    0.98282    1.000
    N249     N        0.01544    0.73236    0.98329    1.000
    Si250    Si       0.00187    0.82374    0.04632    1.000
    N251     N        0.00496    0.86922    0.09637    1.000
    N252     N        0.00373    0.78063    0.03158    1.000
    N253     N        0.04309    0.83190    0.05672    1.000
    N254     N        0.99715    0.85116    0.01394    1.000
    N255     N        0.01214    0.80221    0.12098    1.000
    Si256    Si       0.00668    0.89366    0.02263    1.000
    N257     N        0.01803    0.94509    0.10050    1.000
    N258     N        0.03669    0.90267    0.05182    1.000
    Si259    Si       0.99304    0.90966    0.08552    1.000
    Si260    Si       0.03165    0.00197    0.02176    1.000
    N261     N        0.99200    0.75962    0.16584    1.000
    Si262    Si       0.01197    0.78889    0.19566    1.000
    N263     N        0.02878    0.77436    0.23373    1.000
    N264     N        0.00293    0.87396    0.22827    1.000
    N265     N        0.04564    0.81464    0.18212    1.000
    N266     N        0.01002    0.92514    0.17133    1.000
    Si267    Si       0.99174    0.94420    0.13805    1.000
    Si268    Si       0.03989    0.95406    0.18058    1.000
    N269     N        0.01940    0.99156    0.18882    1.000
    N270     N        0.01234    0.77070    0.29580    1.000
    Si271    Si       0.02899    0.86189    0.25979    1.000
    N272     N        0.02943    0.79132    0.36287    1.000
    N273     N        0.99540    0.83933    0.28266    1.000
    Si274    Si       0.04241    0.77011    0.32814    1.000
    N275     N        0.01947    0.88596    0.32928    1.000
    Si276    Si       0.00510    0.98643    0.31967    1.000
    N277     N        0.00668    0.94830    0.29826    1.000
    Si278    Si       0.03924    0.92129    0.30752    1.000
    N279     N        0.04575    0.99921    0.33074    1.000
    Si280    Si       0.04655    0.88946    0.36096    1.000
    N281     N        0.01347    0.77514    0.46169    1.000
    N282     N        0.03045    0.83593    0.42430    1.000
    Si283    Si       0.99923    0.81008    0.44116    1.000
    Si284    Si       0.03837    0.87848    0.43100    1.000
    N285     N        0.01606    0.90478    0.46030    1.000
    Si286    Si       0.99141    0.97165    0.47451    1.000
    Si287    Si       0.98984    0.92183    0.41962    1.000
    Si288    Si       0.04190    0.91773    0.49332    1.000
    N289     N        0.99794    0.96346    0.43225    1.000
    N290     N        0.02434    0.90230    0.39647    1.000
    Si291    Si       0.00382    0.99474    0.40091    1.000
    Si292    Si       0.02079    0.81084    0.57429    1.000
    N293     N        0.03141    0.77519    0.55064    1.000
    Si294    Si       0.00737    0.87381    0.54160    1.000
    N295     N        0.99773    0.83283    0.54417    1.000
    N296     N        0.00122    0.79734    0.60920    1.000
    N297     N        0.04137    0.84036    0.59966    1.000
    Si298    Si       0.02996    0.88258    0.61148    1.000
    N299     N        0.99943    0.89043    0.58105    1.000
    Si300    Si       0.02989    0.97681    0.54374    1.000
    N301     N        0.01557    0.95325    0.50909    1.000
    N302     N        0.03813    0.96088    0.58042    1.000
    N303     N        0.99531    0.00410    0.54930    1.000
    N304     N        0.04449    0.88184    0.51980    1.000
    Si305    Si       0.00633    0.76400    0.67630    1.000
    N306     N        0.99883    0.80611    0.67683    1.000
    N307     N        0.01642    0.86823    0.64969    1.000
    Si308    Si       0.02216    0.82533    0.64162    1.000
    Si309    Si       0.03762    0.86594    0.74159    1.000
    N310     N        0.00099    0.87759    0.71852    1.000
    N311     N        0.01149    0.96074    0.73488    1.000
    N312     N        0.02708    0.82435    0.82975    1.000
    N313     N        0.01095    0.86154    0.77677    1.000
    Si314    Si       0.02660    0.86581    0.81617    1.000
    N315     N        0.01887    0.78224    0.77454    1.000
    Si316    Si       0.99746    0.80743    0.85663    1.000
    N317     N        0.01716    0.76962    0.85350    1.000
    Si318    Si       0.03956    0.78531    0.81328    1.000
    N319     N        0.00212    0.88957    0.84078    1.000
    Si320    Si       0.02901    0.99125    0.84451    1.000
    Si321    Si       0.01384    0.96804    0.77666    1.000
    N322     N        0.03566    0.93616    0.79988    1.000
    N323     N        0.00963    0.95708    0.86114    1.000
    Si324    Si       0.00111    0.93188    0.82697    1.000
    N325     N        0.00359    0.99727    0.80911    1.000
    N326     N        0.00102    0.83265    0.89149    1.000
    N327     N        0.03251    0.85359    0.94818    1.000
    Si328    Si       0.01635    0.81789    0.92882    1.000
    N329     N        0.99180    0.80509    0.96132    1.000
    Si330    Si       0.01482    0.77520    0.98919    1.000
    N331     N        0.04160    0.78365    0.92134    1.000
    Si332    Si       0.99030    0.87386    0.88072    1.000
    Si333    Si       0.99933    0.94605    0.90226    1.000
    Si334    Si       0.03147    0.95105    0.97573    1.000
    N335     N        0.02332    0.96535    0.93168    1.000
    N336     N        0.99780    0.90283    0.91114    1.000
    Si337    Si       0.00311    0.88726    0.95190    1.000
    N338     N        0.01738    0.91160    0.98508    1.000
    N339     N        0.00574    0.97674    0.99785    1.000
    N340     N        0.06222    0.07336    0.07324    1.000
    Si341    Si       0.08831    0.08603    0.10594    1.000
    N342     N        0.08188    0.12846    0.03168    1.000
    N343     N        0.06279    0.02363    0.00005    1.000
    Si344    Si       0.10583    0.01233    0.09535    1.000
    Si345    Si       0.04916    0.10846    0.05324    1.000
    N346     N        0.08137    0.23306    0.10646    1.000
    N347     N        0.05247    0.23255    0.04319    1.000
    N348     N        0.05037    0.12015    0.21115    1.000
    N349     N        0.06151    0.10070    0.13911    1.000
    N350     N        0.05555    0.05163    0.18992    1.000
    Si351    Si       0.09851    0.05171    0.19741    1.000
    N352     N        0.10316    0.06239    0.23787    1.000
    N353     N        0.07385    0.18978    0.22901    1.000
    N354     N        0.08039    0.16440    0.12655    1.000
    Si355    Si       0.07972    0.20478    0.14017    1.000
    Si356    Si       0.08240    0.14764    0.22622    1.000
    Si357    Si       0.10547    0.21589    0.24429    1.000
    N358     N        0.06630    0.11688    0.32945    1.000
    Si359    Si       0.07838    0.04284    0.27234    1.000
    Si360    Si       0.06085    0.10680    0.28425    1.000
    N361     N        0.08923    0.04849    0.35864    1.000
    Si362    Si       0.09662    0.08868    0.34258    1.000
    N363     N        0.10455    0.01487    0.29787    1.000
    N364     N        0.05914    0.00952    0.24586    1.000
    N365     N        0.09059    0.13619    0.26774    1.000
    Si366    Si       0.04878    0.03096    0.36053    1.000
    N367     N        0.09601    0.22998    0.28544    1.000
    Si368    Si       0.08279    0.15743    0.33617    1.000
    N369     N        0.04932    0.18179    0.32291    1.000
    Si370    Si       0.07070    0.02208    0.49585    1.000
    N371     N        0.07328    0.11490    0.49373    1.000
    N372     N        0.08586    0.17002    0.37809    1.000
    Si373    Si       0.07752    0.15210    0.47138    1.000
    N374     N        0.06609    0.22735    0.41754    1.000
    Si375    Si       0.08525    0.13233    0.40025    1.000
    N376     N        0.04860    0.23402    0.48897    1.000
    Si377    Si       0.09567    0.21042    0.39115    1.000
    N378     N        0.10287    0.14240    0.43807    1.000
    N379     N        0.09062    0.18105    0.49891    1.000
    Si380    Si       0.09192    0.11962    0.53194    1.000
    N381     N        0.07708    0.02416    0.59231    1.000
    Si382    Si       0.08620    0.06517    0.58659    1.000
    N383     N        0.05159    0.08946    0.60165    1.000
    N384     N        0.09944    0.07816    0.54674    1.000
    Si385    Si       0.06248    0.13210    0.60216    1.000
    N386     N        0.06892    0.14035    0.55941    1.000
    N387     N        0.06855    0.22644    0.54909    1.000
    Si388    Si       0.05641    0.20069    0.51810    1.000
    Si389    Si       0.05785    0.25170    0.58209    1.000
    N390     N        0.08366    0.25821    0.61829    1.000
    Si391    Si       0.07114    0.04519    0.69846    1.000
    N392     N        0.09107    0.04005    0.66026    1.000
    Si393    Si       0.06095    0.01781    0.63376    1.000
    N394     N        0.08280    0.04552    0.74057    1.000
    N395     N        0.06360    0.19834    0.65068    1.000
    Si396    Si       0.06859    0.24117    0.65590    1.000
    Si397    Si       0.08509    0.16260    0.66177    1.000
    N398     N        0.06318    0.13531    0.68680    1.000
    Si399    Si       0.09590    0.13654    0.71661    1.000
    N400     N        0.10070    0.24908    0.68603    1.000
    N401     N        0.09603    0.14097    0.62530    1.000
    Si402    Si       0.07813    0.09104    0.80664    1.000
    Si403    Si       0.05016    0.03104    0.76718    1.000
    N404     N        0.09632    0.09035    0.84750    1.000
    N405     N        0.04959    0.12280    0.80909    1.000
    N406     N        0.04980    0.05657    0.80340    1.000
    N407     N        0.08117    0.25545    0.81718    1.000
    N408     N        0.08605    0.15236    0.75312    1.000
    Si409    Si       0.06296    0.21819    0.82941    1.000
    N410     N        0.07916    0.18912    0.80289    1.000
    Si411    Si       0.05592    0.15650    0.78291    1.000
    Si412    Si       0.06867    0.04763    0.96468    1.000
    N413     N        0.07997    0.06536    0.90925    1.000
    N414     N        0.07786    0.08848    0.97536    1.000
    Si415    Si       0.08723    0.10165    0.88869    1.000
    Si416    Si       0.07954    0.12938    0.98904    1.000
    N417     N        0.05920    0.20649    0.87237    1.000
    Si418    Si       0.05354    0.17433    0.89851    1.000
    N419     N        0.07748    0.17201    0.93538    1.000
    N420     N        0.06057    0.13494    0.87988    1.000
    N421     N        0.05713    0.24870    0.92657    1.000
    N422     N        0.07334    0.30253    0.04911    1.000
    Si423    Si       0.08412    0.34344    0.10352    1.000
    N424     N        0.10025    0.30329    0.11369    1.000
    Si425    Si       0.07869    0.26230    0.02895    1.000
    N426     N        0.09808    0.34292    0.99988    1.000
    Si427    Si       0.06898    0.27389    0.11949    1.000
    N428     N        0.10467    0.36282    0.06857    1.000
    Si429    Si       0.07654    0.44406    0.10750    1.000
    N430     N        0.06609    0.48395    0.12000    1.000
    N431     N        0.10339    0.43515    0.07336    1.000
    N432     N        0.07060    0.26680    0.16451    1.000
    N433     N        0.09054    0.36220    0.14113    1.000
    Si434    Si       0.09846    0.29379    0.23476    1.000
    N435     N        0.09828    0.32070    0.20065    1.000
    Si436    Si       0.06416    0.39663    0.23673    1.000
    N437     N        0.08452    0.38519    0.19935    1.000
    N438     N        0.08870    0.42627    0.14564    1.000
    Si439    Si       0.06541    0.39300    0.16065    1.000
    Si440    Si       0.06363    0.48514    0.16340    1.000
    N441     N        0.10569    0.48059    0.17614    1.000
    N442     N        0.06815    0.44228    0.24526    1.000
    N443     N        0.07331    0.36771    0.26877    1.000
    Si444    Si       0.09145    0.33789    0.33949    1.000
    Si445    Si       0.07550    0.26620    0.29736    1.000
    N446     N        0.06420    0.28598    0.25902    1.000
    N447     N        0.10141    0.29270    0.32126    1.000
    N448     N        0.05051    0.33188    0.32649    1.000
    N449     N        0.08997    0.37908    0.35845    1.000
    N450     N        0.07657    0.43099    0.31329    1.000
    Si451    Si       0.08726    0.45755    0.28003    1.000
    N452     N        0.07649    0.49559    0.30055    1.000
    Si453    Si       0.10417    0.41799    0.34485    1.000
    N454     N        0.09727    0.31800    0.38006    1.000
    Si455    Si       0.09530    0.31588    0.48467    1.000
    Si456    Si       0.06196    0.31996    0.40671    1.000
    N457     N        0.08844    0.33401    0.44275    1.000
    Si458    Si       0.10499    0.37656    0.43849    1.000
    N459     N        0.05274    0.30329    0.49172    1.000
    Si460    Si       0.05359    0.50599    0.40074    1.000
    N461     N        0.05042    0.47006    0.42678    1.000
    Si462    Si       0.08527    0.44499    0.41654    1.000
    N463     N        0.09805    0.44620    0.37526    1.000
    N464     N        0.07518    0.40277    0.42038    1.000
    Si465    Si       0.05473    0.38540    0.38332    1.000
    Si466    Si       0.10561    0.50186    0.44832    1.000
    N467     N        0.07215    0.50740    0.47531    1.000
    Si468    Si       0.06865    0.37432    0.52722    1.000
    N469     N        0.05769    0.35052    0.56399    1.000
    Si470    Si       0.06198    0.26589    0.51705    1.000
    Si471    Si       0.08445    0.31653    0.55170    1.000
    N472     N        0.10017    0.34488    0.51678    1.000
    N473     N        0.10338    0.28128    0.52291    1.000
    N474     N        0.04693    0.28535    0.55506    1.000
    Si475    Si       0.05278    0.44896    0.53632    1.000
    N476     N        0.07706    0.41277    0.54251    1.000
    N477     N        0.06915    0.48814    0.55333    1.000
    N478     N        0.08855    0.37246    0.72956    1.000
    Si479    Si       0.06954    0.33260    0.73671    1.000
    N480     N        0.05508    0.27925    0.73885    1.000
    N481     N        0.05214    0.35632    0.63501    1.000
    Si482    Si       0.09470    0.27018    0.72221    1.000
    N483     N        0.04418    0.32770    0.69905    1.000
    N484     N        0.05391    0.42337    0.62969    1.000
    Si485    Si       0.06170    0.45926    0.65037    1.000
    N486     N        0.08626    0.44026    0.71906    1.000
    N487     N        0.10579    0.39147    0.66929    1.000
    Si488    Si       0.06409    0.47995    0.71738    1.000
    Si489    Si       0.08139    0.39056    0.63316    1.000
    Si490    Si       0.07087    0.40828    0.74307    1.000
    N491     N        0.05750    0.49287    0.62422    1.000
    N492     N        0.10510    0.46203    0.65943    1.000
    N493     N        0.08580    0.31932    0.78066    1.000
    N494     N        0.06479    0.32582    0.84295    1.000
    Si495    Si       0.07848    0.28604    0.85233    1.000
    Si496    Si       0.06948    0.27710    0.78047    1.000
    Si497    Si       0.05001    0.36667    0.86074    1.000
    N498     N        0.07551    0.40178    0.85137    1.000
    N499     N        0.07198    0.41673    0.78456    1.000
    N500     N        0.06568    0.48891    0.76036    1.000
    N501     N        0.05826    0.46974    0.83241    1.000
    Si502    Si       0.09895    0.40282    0.81522    1.000
    Si503    Si       0.05445    0.45865    0.79056    1.000
    Si504    Si       0.06866    0.44213    0.86445    1.000
    N505     N        0.09871    0.30407    0.93847    1.000
    N506     N        0.06531    0.35457    0.90018    1.000
    Si507    Si       0.07847    0.31380    0.97567    1.000
    N508     N        0.06752    0.27454    0.99023    1.000
    Si509    Si       0.09802    0.26253    0.92286    1.000
    Si510    Si       0.10356    0.33917    0.91238    1.000
    N511     N        0.10698    0.27006    0.88106    1.000
    N512     N        0.10487    0.45352    0.88677    1.000
    Si513    Si       0.07672    0.44688    0.98350    1.000
    N514     N        0.06918    0.40355    0.97926    1.000
    N515     N        0.07301    0.47865    0.95065    1.000
    Si516    Si       0.10689    0.46512    0.92823    1.000
    N517     N        0.06815    0.55376    0.09875    1.000
    Si518    Si       0.09156    0.61036    0.01558    1.000
    N519     N        0.09680    0.62258    0.08895    1.000
    Si520    Si       0.06707    0.51190    0.08739    1.000
    Si521    Si       0.10097    0.57876    0.08688    1.000
    N522     N        0.05439    0.62733    0.03121    1.000
    N523     N        0.09956    0.50910    0.05805    1.000
    N524     N        0.10308    0.57761    0.04252    1.000
    Si525    Si       0.05683    0.63343    0.07363    1.000
    Si526    Si       0.07890    0.69789    0.05621    1.000
    N527     N        0.07155    0.70211    0.01359    1.000
    N528     N        0.07798    0.73877    0.07187    1.000
    Si529    Si       0.08060    0.74321    0.11435    1.000
    N530     N        0.05329    0.67544    0.08198    1.000
    Si531    Si       0.06384    0.56082    0.18194    1.000
    N532     N        0.07013    0.58053    0.22112    1.000
    N533     N        0.09084    0.60634    0.15738    1.000
    Si534    Si       0.10206    0.55866    0.24102    1.000
    N535     N        0.10527    0.54737    0.17291    1.000
    Si536    Si       0.09613    0.63895    0.13085    1.000
    Si537    Si       0.08699    0.67440    0.19089    1.000
    N538     N        0.07152    0.67015    0.15088    1.000
    N539     N        0.06846    0.65697    0.22566    1.000
    Si540    Si       0.08579    0.72686    0.24238    1.000
    N541     N        0.08812    0.71763    0.20013    1.000
    Si542    Si       0.07808    0.60223    0.29984    1.000
    Si543    Si       0.07330    0.58017    0.35555    1.000
    N544     N        0.08931    0.56401    0.28135    1.000
    N545     N        0.09574    0.54483    0.34717    1.000
    N546     N        0.09748    0.61270    0.34197    1.000
    Si547    Si       0.10259    0.52986    0.30539    1.000
    Si548    Si       0.09821    0.65525    0.34676    1.000
    N549     N        0.08201    0.67585    0.31077    1.000
    Si550    Si       0.08800    0.65713    0.26701    1.000
    N551     N        0.05254    0.72884    0.33831    1.000
    N552     N        0.04905    0.71929    0.26910    1.000
    N553     N        0.06499    0.59289    0.39582    1.000
    N554     N        0.09441    0.51752    0.40864    1.000
    Si555    Si       0.05161    0.54330    0.49406    1.000
    N556     N        0.10143    0.73551    0.38593    1.000
    Si557    Si       0.06482    0.71259    0.37713    1.000
    N558     N        0.07745    0.74722    0.45273    1.000
    Si559    Si       0.05477    0.63612    0.40475    1.000
    N560     N        0.07634    0.64051    0.44325    1.000
    N561     N        0.07023    0.66755    0.37905    1.000
    Si562    Si       0.08495    0.73107    0.49091    1.000
    Si563    Si       0.08732    0.66153    0.48688    1.000
    N564     N        0.06052    0.69415    0.49051    1.000
    Si565    Si       0.07235    0.59070    0.53054    1.000
    Si566    Si       0.09757    0.62272    0.59809    1.000
    N567     N        0.09463    0.56288    0.50727    1.000
    N568     N        0.06948    0.62627    0.50737    1.000
    N569     N        0.10116    0.59138    0.56529    1.000
    N570     N        0.05789    0.64167    0.59296    1.000
    Si571    Si       0.07527    0.75216    0.56952    1.000
    N572     N        0.05179    0.71567    0.57590    1.000
    Si573    Si       0.05307    0.68452    0.60458    1.000
    Si574    Si       0.06836    0.52587    0.65073    1.000
    N575     N        0.06241    0.58782    0.69706    1.000
    N576     N        0.09101    0.60274    0.63709    1.000
    Si577    Si       0.09474    0.60841    0.71908    1.000
    N578     N        0.06563    0.51814    0.69503    1.000
    Si579    Si       0.05240    0.59456    0.65506    1.000
    N580     N        0.09241    0.65094    0.71551    1.000
    N581     N        0.09432    0.71422    0.70193    1.000
    Si582    Si       0.09375    0.72724    0.74301    1.000
    N583     N        0.08298    0.69461    0.63432    1.000
    Si584    Si       0.06341    0.71022    0.67274    1.000
    Si585    Si       0.05628    0.66880    0.72835    1.000
    N586     N        0.08104    0.53026    0.81683    1.000
    Si587    Si       0.07980    0.52815    0.77378    1.000
    N588     N        0.09314    0.60085    0.76176    1.000
    Si589    Si       0.05116    0.59861    0.76993    1.000
    N590     N        0.05172    0.55612    0.75394    1.000
    Si591    Si       0.05114    0.51173    0.84308    1.000
    N592     N        0.08860    0.64152    0.85920    1.000
    N593     N        0.05980    0.74405    0.81041    1.000
    Si594    Si       0.07031    0.71664    0.84298    1.000
    N595     N        0.06036    0.70318    0.75535    1.000
    Si596    Si       0.05113    0.64293    0.83599    1.000
    N597     N        0.05447    0.50758    0.88569    1.000
    N598     N        0.05450    0.57681    0.87210    1.000
    Si599    Si       0.05600    0.58888    0.95667    1.000
    N600     N        0.09453    0.59971    0.97281    1.000
    Si601    Si       0.06635    0.61647    0.89094    1.000
    N602     N        0.06212    0.55217    0.93593    1.000
    Si603    Si       0.07330    0.54596    0.89555    1.000
    Si604    Si       0.05112    0.51562    0.95435    1.000
    N605     N        0.04679    0.62020    0.92989    1.000
    N606     N        0.06734    0.72954    0.88395    1.000
    N607     N        0.05256    0.69111    0.94067    1.000
    N608     N        0.08962    0.74449    0.95511    1.000
    Si609    Si       0.08266    0.71609    0.92310    1.000
    Si610    Si       0.06602    0.81972    0.02123    1.000
    N611     N        0.09031    0.87748    0.06668    1.000
    N612     N        0.07878    0.85527    0.99813    1.000
    Si613    Si       0.10307    0.87825    0.02588    1.000
    Si614    Si       0.04691    0.86770    0.08122    1.000
    N615     N        0.07681    0.78625    0.12122    1.000
    N616     N        0.10198    0.80464    0.03797    1.000
    N617     N        0.06083    0.00671    0.09755    1.000
    Si618    Si       0.06736    0.93227    0.04732    1.000
    N619     N        0.08567    0.94178    0.08588    1.000
    Si620    Si       0.05482    0.96538    0.10639    1.000
    N621     N        0.06037    0.97122    0.03292    1.000
    Si622    Si       0.09428    0.99759    0.02013    1.000
    N623     N        0.09765    0.92051    0.01793    1.000
    N624     N        0.06122    0.85513    0.12257    1.000
    Si625    Si       0.07369    0.84087    0.20460    1.000
    Si626    Si       0.09591    0.86808    0.14592    1.000
    N627     N        0.06053    0.83529    0.24484    1.000
    N628     N        0.08228    0.88123    0.18563    1.000
    Si629    Si       0.04891    0.81571    0.13751    1.000
    Si630    Si       0.09855    0.91840    0.20274    1.000
    N631     N        0.06947    0.94811    0.21284    1.000
    N632     N        0.06665    0.95807    0.14792    1.000
    N633     N        0.07109    0.79172    0.30331    1.000
    Si634    Si       0.05828    0.79400    0.25901    1.000
    N635     N        0.09391    0.76842    0.25080    1.000
    N636     N        0.07227    0.85154    0.36810    1.000
    N637     N        0.05390    0.89448    0.27722    1.000
    Si638    Si       0.09523    0.91119    0.27545    1.000
    N639     N        0.07764    0.95183    0.28332    1.000
    Si640    Si       0.08050    0.97854    0.31586    1.000
    N641     N        0.06342    0.92625    0.34592    1.000
    N642     N        0.10596    0.97924    0.35017    1.000
    Si643    Si       0.08077    0.97407    0.24402    1.000
    N644     N        0.06943    0.81940    0.48874    1.000
    N645     N        0.07934    0.86991    0.44496    1.000
    Si646    Si       0.07150    0.82731    0.44660    1.000
    N647     N        0.08284    0.80105    0.41225    1.000
    Si648    Si       0.10136    0.76408    0.42056    1.000
    Si649    Si       0.04961    0.81975    0.38686    1.000
    Si650    Si       0.09357    0.94283    0.37374    1.000
    N651     N        0.07860    0.99854    0.46088    1.000
    N652     N        0.08053    0.92759    0.47957    1.000
    Si653    Si       0.09703    0.95806    0.45538    1.000
    Si654    Si       0.08306    0.00101    0.41642    1.000
    N655     N        0.08968    0.95829    0.41271    1.000
    Si656    Si       0.08131    0.82635    0.59190    1.000
    Si657    Si       0.07755    0.85219    0.51623    1.000
    N658     N        0.07746    0.82569    0.54880    1.000
    N659     N        0.07432    0.78282    0.60001    1.000
    Si660    Si       0.06229    0.79211    0.52292    1.000
    N661     N        0.08873    0.75906    0.52634    1.000
    Si662    Si       0.06921    0.94849    0.60771    1.000
    Si663    Si       0.09371    0.99502    0.56549    1.000
    N664     N        0.06762    0.99548    0.53041    1.000
    N665     N        0.06515    0.90498    0.61949    1.000
    N666     N        0.10240    0.95490    0.58014    1.000
    N667     N        0.09142    0.87152    0.67943    1.000
    Si668    Si       0.07356    0.77375    0.64315    1.000
    Si669    Si       0.08262    0.83113    0.69144    1.000
    N670     N        0.06281    0.81500    0.65596    1.000
    N671     N        0.05533    0.83052    0.72618    1.000
    Si672    Si       0.10005    0.96218    0.67151    1.000
    N673     N        0.07247    0.94585    0.70218    1.000
    Si674    Si       0.05143    0.97620    0.72371    1.000
    N675     N        0.07039    0.89363    0.74416    1.000
    Si676    Si       0.10076    0.88959    0.63937    1.000
    N677     N        0.07438    0.97660    0.64069    1.000
    Si678    Si       0.08822    0.90712    0.70527    1.000
    N679     N        0.07672    0.80492    0.79556    1.000
    Si680    Si       0.07642    0.83722    0.84002    1.000
    N681     N        0.06945    0.87152    0.80975    1.000
    Si682    Si       0.05506    0.79827    0.75590    1.000
    N683     N        0.07880    0.79725    0.86232    1.000
    N684     N        0.08197    0.76778    0.74782    1.000
    N685     N        0.05854    0.98628    0.76564    1.000
    Si686    Si       0.09182    0.89599    0.78015    1.000
    N687     N        0.06989    0.98132    0.83645    1.000
    Si688    Si       0.07287    0.96060    0.79817    1.000
    Si689    Si       0.09540    0.97645    0.87124    1.000
    N690     N        0.10761    0.93617    0.79200    1.000
    N691     N        0.06932    0.86479    0.87371    1.000
    Si692    Si       0.07416    0.85429    0.95489    1.000
    Si693    Si       0.07295    0.78523    0.95062    1.000
    N694     N        0.09525    0.82008    0.93918    1.000
    N695     N        0.05463    0.79328    0.98901    1.000
    Si696    Si       0.05029    0.77013    0.88104    1.000
    Si697    Si       0.06545    0.96651    0.92265    1.000
    N698     N        0.08202    0.00269    0.90539    1.000
    Si699    Si       0.09001    0.89871    0.89348    1.000
    N700     N        0.08123    0.94056    0.89223    1.000
    N701     N        0.07462    0.95593    0.96285    1.000
    N702     N        0.09317    0.88738    0.93638    1.000
    Si703    Si       0.11113    0.94326    0.98312    1.000
    N704     N        0.13465    0.08516    0.01995    1.000
    Si705    Si       0.12164    0.11609    0.04656    1.000
    N706     N        0.11370    0.11574    0.08983    1.000
    N707     N        0.11204    0.04921    0.11623    1.000
    N708     N        0.15146    0.14819    0.03830    1.000
    Si709    Si       0.11900    0.22912    0.08172    1.000
    N710     N        0.13193    0.18699    0.09094    1.000
    N711     N        0.11809    0.24231    0.03968    1.000
    Si712    Si       0.15523    0.23196    0.01987    1.000
    Si713    Si       0.11962    0.15219    0.11445    1.000
    N714     N        0.14859    0.25347    0.10194    1.000
    Si715    Si       0.14247    0.11659    0.18037    1.000
    N716     N        0.12081    0.01768    0.18327    1.000
    Si717    Si       0.13594    0.04248    0.15096    1.000
    N718     N        0.12360    0.07865    0.17393    1.000
    Si719    Si       0.11201    0.25523    0.17876    1.000
    N720     N        0.14813    0.14920    0.14801    1.000
    N721     N        0.11348    0.21237    0.16672    1.000
    Si722    Si       0.13610    0.18002    0.18122    1.000
    N723     N        0.11106    0.25419    0.22184    1.000
    N724     N        0.11587    0.14607    0.19939    1.000
    Si725    Si       0.13104    0.07951    0.26726    1.000
    N726     N        0.15627    0.02883    0.35063    1.000
    N727     N        0.15330    0.11682    0.26592    1.000
    Si728    Si       0.11518    0.02207    0.33828    1.000
    N729     N        0.15672    0.04319    0.26727    1.000
    N730     N        0.10279    0.07864    0.29941    1.000
    Si731    Si       0.13059    0.15121    0.27963    1.000
    Si732    Si       0.12051    0.21642    0.32100    1.000
    N733     N        0.13836    0.18860    0.25768    1.000
    N734     N        0.12069    0.17018    0.31918    1.000
    N735     N        0.16194    0.23158    0.31212    1.000
    N736     N        0.10753    0.23469    0.35714    1.000
    N737     N        0.11309    0.10985    0.37537    1.000
    Si738    Si       0.15771    0.10760    0.38514    1.000
    N739     N        0.12263    0.01919    0.41838    1.000
    Si740    Si       0.13243    0.01698    0.46259    1.000
    Si741    Si       0.15515    0.03114    0.39351    1.000
    N742     N        0.11233    0.04019    0.49152    1.000
    N743     N        0.16249    0.07173    0.40954    1.000
    Si744    Si       0.15739    0.24174    0.41012    1.000
    N745     N        0.13279    0.20587    0.41769    1.000
    Si746    Si       0.13969    0.16693    0.43632    1.000
    N747     N        0.15862    0.16967    0.47571    1.000
    Si748    Si       0.13141    0.05521    0.52899    1.000
    N749     N        0.12964    0.01644    0.55082    1.000
    N750     N        0.12112    0.07674    0.61112    1.000
    Si751    Si       0.13138    0.11888    0.61837    1.000
    N752     N        0.15908    0.13217    0.58749    1.000
    N753     N        0.13133    0.13678    0.52783    1.000
    Si754    Si       0.13183    0.17638    0.51026    1.000
    N755     N        0.14621    0.20908    0.53262    1.000
    N756     N        0.14227    0.25231    0.57869    1.000
    Si757    Si       0.13449    0.25226    0.53458    1.000
    Si758    Si       0.11843    0.06970    0.74394    1.000
    N759     N        0.16129    0.07314    0.67340    1.000
    Si760    Si       0.13253    0.05245    0.64640    1.000
    Si761    Si       0.15711    0.11550    0.68888    1.000
    N762     N        0.12456    0.10368    0.71684    1.000
    N763     N        0.15671    0.01664    0.63303    1.000
    N764     N        0.15298    0.04257    0.75028    1.000
    N765     N        0.16194    0.13404    0.64900    1.000
    N766     N        0.14253    0.19250    0.74254    1.000
    Si767    Si       0.15536    0.18124    0.70202    1.000
    Si768    Si       0.14347    0.25471    0.67929    1.000
    N769     N        0.11852    0.16310    0.69029    1.000
    Si770    Si       0.13066    0.06421    0.84864    1.000
    Si771    Si       0.14834    0.10997    0.79722    1.000
    N772     N        0.11780    0.02574    0.83758    1.000
    N773     N        0.11122    0.09328    0.78033    1.000
    N774     N        0.14664    0.21384    0.80354    1.000
    N775     N        0.13976    0.15139    0.80348    1.000
    Si776    Si       0.11644    0.17761    0.77805    1.000
    Si777    Si       0.12277    0.25156    0.80293    1.000
    N778     N        0.11404    0.04038    0.96032    1.000
    Si779    Si       0.11331    0.03616    0.91470    1.000
    N780     N        0.14221    0.05940    0.89044    1.000
    Si781    Si       0.12407    0.08705    0.97450    1.000
    N782     N        0.12070    0.11855    0.91209    1.000
    Si783    Si       0.15825    0.09547    0.90970    1.000
    N784     N        0.16190    0.08616    0.95414    1.000
    Si785    Si       0.14705    0.01066    0.97177    1.000
    N786     N        0.14396    0.20049    0.99265    1.000
    N787     N        0.15437    0.17422    0.92886    1.000
    Si788    Si       0.11777    0.15313    0.93636    1.000
    N789     N        0.13185    0.24057    0.93633    1.000
    Si790    Si       0.15651    0.21139    0.95176    1.000
    N791     N        0.12104    0.13746    0.97708    1.000
    Si792    Si       0.15343    0.15758    0.99623    1.000
    N793     N        0.14688    0.31571    0.03838    1.000
    Si794    Si       0.10629    0.33008    0.03904    1.000
    Si795    Si       0.14054    0.28916    0.12291    1.000
    N796     N        0.16374    0.40566    0.07259    1.000
    Si797    Si       0.12446    0.39955    0.05271    1.000
    N798     N        0.15339    0.47143    0.06276    1.000
    N799     N        0.13133    0.40079    0.01154    1.000
    Si800    Si       0.11289    0.46890    0.04852    1.000
    Si801    Si       0.16363    0.44247    0.09249    1.000
    N802     N        0.10870    0.46736    0.00621    1.000
    N803     N        0.14619    0.27646    0.16376    1.000
    N804     N        0.15322    0.35904    0.16592    1.000
    Si805    Si       0.11198    0.35520    0.17876    1.000
    N806     N        0.14463    0.42883    0.20025    1.000
    Si807    Si       0.12444    0.44130    0.16344    1.000
    N808     N        0.15188    0.45458    0.13295    1.000
    Si809    Si       0.14812    0.42393    0.24226    1.000
    N810     N        0.12730    0.34908    0.31340    1.000
    Si811    Si       0.14114    0.30643    0.30495    1.000
    N812     N        0.12431    0.31345    0.26317    1.000
    N813     N        0.15473    0.29095    0.34712    1.000
    Si814    Si       0.11518    0.28062    0.36427    1.000
    Si815    Si       0.11456    0.35528    0.27074    1.000
    Si816    Si       0.15995    0.37383    0.32711    1.000
    N817     N        0.14543    0.38233    0.25402    1.000
    N818     N        0.14598    0.41498    0.33367    1.000
    N819     N        0.12966    0.45595    0.26621    1.000
    Si820    Si       0.14601    0.49524    0.25563    1.000
    Si821    Si       0.12519    0.31622    0.42332    1.000
    N822     N        0.14291    0.35833    0.41950    1.000
    N823     N        0.13532    0.30387    0.46644    1.000
    N824     N        0.13202    0.27581    0.40610    1.000
    Si825    Si       0.12885    0.43706    0.48055    1.000
    N826     N        0.11671    0.45777    0.44198    1.000
    N827     N        0.11753    0.39605    0.47515    1.000
    Si828    Si       0.16028    0.45402    0.42853    1.000
    Si829    Si       0.12156    0.27738    0.60803    1.000
    Si830    Si       0.13043    0.34596    0.60775    1.000
    Si831    Si       0.13490    0.36928    0.50708    1.000
    N832     N        0.11306    0.31290    0.58523    1.000
    N833     N        0.10910    0.38388    0.60252    1.000
    N834     N        0.14216    0.39366    0.54110    1.000
    N835     N        0.12275    0.45327    0.57803    1.000
    Si836    Si       0.11275    0.41262    0.56919    1.000
    Si837    Si       0.11225    0.48230    0.54938    1.000
    N838     N        0.12292    0.46597    0.51214    1.000
    Si839    Si       0.16166    0.46312    0.59656    1.000
    N840     N        0.14981    0.27537    0.64060    1.000
    N841     N        0.12913    0.33517    0.65072    1.000
    N842     N        0.15136    0.35442    0.71027    1.000
    Si843    Si       0.11326    0.35305    0.68938    1.000
    Si844    Si       0.14783    0.31507    0.73081    1.000
    N845     N        0.15972    0.27913    0.71099    1.000
    N846     N        0.10568    0.31317    0.71640    1.000
    N847     N        0.15948    0.48986    0.69004    1.000
    N848     N        0.15678    0.49541    0.62509    1.000
    N849     N        0.15208    0.42467    0.70677    1.000
    Si850    Si       0.12889    0.49771    0.65954    1.000
    Si851    Si       0.11290    0.42881    0.68785    1.000
    N852     N        0.13421    0.28896    0.82255    1.000
    N853     N        0.12295    0.36676    0.81774    1.000
    Si854    Si       0.12340    0.32521    0.79926    1.000
    Si855    Si       0.14443    0.36428    0.85598    1.000
    N856     N        0.15618    0.33111    0.77208    1.000
    Si857    Si       0.14371    0.29065    0.86652    1.000
    N858     N        0.10943    0.25921    0.76278    1.000
    N859     N        0.13033    0.43346    0.82585    1.000
    N860     N        0.14943    0.47143    0.76664    1.000
    Si861    Si       0.15857    0.43793    0.79379    1.000
    Si862    Si       0.14027    0.43728    0.86861    1.000
    N863     N        0.12255    0.36680    0.94183    1.000
    N864     N        0.13139    0.33036    0.88008    1.000
    Si865    Si       0.10638    0.38185    0.97935    1.000
    N866     N        0.11895    0.43282    0.95407    1.000
    Si867    Si       0.16066    0.38177    0.92434    1.000
    N868     N        0.15024    0.39622    0.88508    1.000
    Si869    Si       0.13532    0.49051    0.97906    1.000
    N870     N        0.14001    0.49124    0.93422    1.000
    Si871    Si       0.15172    0.42719    0.98187    1.000
    Si872    Si       0.12515    0.54017    0.03686    1.000
    N873     N        0.13444    0.57253    0.11389    1.000
    N874     N        0.13840    0.52909    0.99806    1.000
    N875     N        0.16249    0.54311    0.05808    1.000
    N876     N        0.12151    0.64081    0.02435    1.000
    N877     N        0.12469    0.74625    0.02101    1.000
    Si878    Si       0.12935    0.64246    0.06725    1.000
    N879     N        0.11806    0.68350    0.07471    1.000
    Si880    Si       0.13559    0.69219    0.11298    1.000
    N881     N        0.15433    0.60207    0.17616    1.000
    Si882    Si       0.12746    0.51541    0.18927    1.000
    Si883    Si       0.12517    0.58115    0.15391    1.000
    N884     N        0.11613    0.51735    0.23185    1.000
    N885     N        0.14334    0.57731    0.24166    1.000
    N886     N        0.16769    0.53626    0.18913    1.000
    N887     N        0.15210    0.72968    0.20275    1.000
    Si888    Si       0.15674    0.64667    0.17009    1.000
    N889     N        0.12809    0.66659    0.19609    1.000
    N890     N        0.11282    0.72124    0.13463    1.000
    Si891    Si       0.11726    0.73693    0.17466    1.000
    Si892    Si       0.14365    0.69356    0.22682    1.000
    N893     N        0.13828    0.65361    0.13090    1.000
    Si894    Si       0.14035    0.60099    0.34953    1.000
    Si895    Si       0.14866    0.59835    0.27907    1.000
    N896     N        0.15252    0.57672    0.31866    1.000
    N897     N        0.14398    0.51578    0.29377    1.000
    N898     N        0.15693    0.52436    0.36451    1.000
    N899     N        0.11739    0.62767    0.27979    1.000
    N900     N        0.12804    0.68814    0.35081    1.000
    N901     N        0.12370    0.74195    0.31299    1.000
    Si902    Si       0.12590    0.70090    0.30610    1.000
    N903     N        0.11504    0.69652    0.25963    1.000
    Si904    Si       0.12587    0.75294    0.35395    1.000
    Si905    Si       0.12041    0.54027    0.38195    1.000
    N906     N        0.13700    0.58147    0.39016    1.000
    N907     N        0.13494    0.52839    0.46438    1.000
    N908     N        0.13718    0.59698    0.45351    1.000
    Si909    Si       0.13313    0.56774    0.48387    1.000
    N910     N        0.13658    0.65405    0.40479    1.000
    N911     N        0.12920    0.66088    0.47346    1.000
    Si912    Si       0.14912    0.69986    0.47245    1.000
    Si913    Si       0.11975    0.63442    0.43926    1.000
    N914     N        0.14618    0.71203    0.42952    1.000
    Si915    Si       0.12835    0.69638    0.39355    1.000
    N916     N        0.16447    0.74240    0.37073    1.000
    Si917    Si       0.12179    0.55878    0.54508    1.000
    N918     N        0.12829    0.52119    0.56490    1.000
    N919     N        0.15565    0.57215    0.52180    1.000
    Si920    Si       0.16383    0.51946    0.58814    1.000
    Si921    Si       0.12994    0.74206    0.53597    1.000
    N922     N        0.12707    0.65489    0.59647    1.000
    N923     N        0.11536    0.73786    0.57691    1.000
    Si924    Si       0.13699    0.74939    0.61228    1.000
    N925     N        0.12476    0.72004    0.49869    1.000
    N926     N        0.11273    0.53743    0.65239    1.000
    N927     N        0.13036    0.59213    0.70033    1.000
    Si928    Si       0.12174    0.57953    0.65774    1.000
    N929     N        0.15741    0.59840    0.63937    1.000
    N930     N        0.15663    0.71283    0.62523    1.000
    Si931    Si       0.12414    0.68341    0.62822    1.000
    N932     N        0.13526    0.66390    0.66539    1.000
    N933     N        0.15292    0.68531    0.72927    1.000
    Si934    Si       0.12062    0.67992    0.70206    1.000
    Si935    Si       0.11834    0.54448    0.83740    1.000
    N936     N        0.12243    0.53886    0.77004    1.000
    Si937    Si       0.12682    0.58268    0.78210    1.000
    N938     N        0.12419    0.58757    0.82632    1.000
    Si939    Si       0.12620    0.61337    0.86296    1.000
    N940     N        0.15502    0.52155    0.82724    1.000
    Si941    Si       0.15419    0.51168    0.78308    1.000
    N942     N        0.16095    0.60047    0.76082    1.000
    Si943    Si       0.13965    0.72283    0.81387    1.000
    N944     N        0.12732    0.73095    0.77295    1.000
    N945     N        0.11077    0.70241    0.83756    1.000
    N946     N        0.15220    0.65212    0.86302    1.000
    Si947    Si       0.11636    0.67515    0.86944    1.000
    N948     N        0.11452    0.54196    0.88049    1.000
    Si949    Si       0.15077    0.55636    0.90082    1.000
    Si950    Si       0.12622    0.60341    0.94262    1.000
    N951     N        0.15080    0.56683    0.94240    1.000
    N952     N        0.10745    0.60490    0.90393    1.000
    N953     N        0.16235    0.58953    0.87672    1.000
    N954     N        0.14678    0.63961    0.95018    1.000
    Si955    Si       0.14794    0.68123    0.93658    1.000
    N956     N        0.13206    0.69453    0.97655    1.000
    Si957    Si       0.14514    0.65540    0.99030    1.000
    N958     N        0.11626    0.69200    0.90804    1.000
    Si959    Si       0.10389    0.72398    0.99044    1.000
    N960     N        0.14159    0.85805    0.02586    1.000
    Si961    Si       0.13843    0.81740    0.01556    1.000
    N962     N        0.13458    0.76927    0.09086    1.000
    Si963    Si       0.10986    0.76560    0.05501    1.000
    N964     N        0.15255    0.90204    0.08218    1.000
    Si965    Si       0.15727    0.98959    0.03718    1.000
    Si966    Si       0.11199    0.90650    0.09076    1.000
    N967     N        0.12401    0.98318    0.12464    1.000
    N968     N        0.11831    0.00844    0.05320    1.000
    Si969    Si       0.12071    0.79572    0.12437    1.000
    N970     N        0.12454    0.77844    0.16555    1.000
    Si971    Si       0.14738    0.80891    0.18406    1.000
    N972     N        0.11724    0.83283    0.20694    1.000
    N973     N        0.12419    0.83784    0.13192    1.000
    Si974    Si       0.14194    0.82777    0.24067    1.000
    N975     N        0.11148    0.90606    0.13257    1.000
    N976     N        0.12387    0.98104    0.24317    1.000
    N977     N        0.12834    0.94556    0.18284    1.000
    Si978    Si       0.13843    0.98414    0.20323    1.000
    Si979    Si       0.10778    0.94856    0.14396    1.000
    N980     N        0.11663    0.90352    0.23917    1.000
    N981     N        0.14292    0.80607    0.27996    1.000
    N982     N        0.12568    0.79666    0.34820    1.000
    Si983    Si       0.15692    0.81849    0.32394    1.000
    N984     N        0.14634    0.85399    0.34472    1.000
    Si985    Si       0.11118    0.77861    0.29148    1.000
    Si986    Si       0.11595    0.83357    0.37218    1.000
    N987     N        0.13151    0.90114    0.29727    1.000
    Si988    Si       0.14627    0.89763    0.33830    1.000
    Si989    Si       0.15336    0.89583    0.25896    1.000
    Si990    Si       0.14090    0.00424    0.27516    1.000
    N991     N        0.13418    0.84563    0.40883    1.000
    N992     N        0.14212    0.77680    0.42842    1.000
    Si993    Si       0.15551    0.81832    0.43430    1.000
    N994     N        0.15485    0.82347    0.47675    1.000
    Si995    Si       0.10709    0.89339    0.46768    1.000
    N996     N        0.12397    0.91135    0.37226    1.000
    Si997    Si       0.14225    0.88757    0.40388    1.000
    N998     N        0.13607    0.90963    0.43968    1.000
    N999     N        0.13883    0.97042    0.46393    1.000
    N1000    N        0.14625    0.83051    0.54969    1.000
    Si1001   Si       0.15089    0.84849    0.50956    1.000
    Si1002   Si       0.14678    0.85643    0.58579    1.000
    N1003    N        0.11455    0.87065    0.50314    1.000
    N1004    N        0.10810    0.85434    0.61064    1.000
    Si1005   Si       0.14148    0.93512    0.57269    1.000
    N1006    N        0.14449    0.93459    0.52965    1.000
    N1007    N        0.15505    0.89880    0.59124    1.000
    Si1008   Si       0.13759    0.77866    0.68179    1.000
    N1009    N        0.11897    0.81111    0.70399    1.000
    Si1010   Si       0.15280    0.80983    0.73308    1.000
    N1011    N        0.11570    0.76222    0.64826    1.000
    N1012    N        0.15030    0.75488    0.71421    1.000
    Si1013   Si       0.15446    0.88856    0.74451    1.000
    Si1014   Si       0.15866    0.92027    0.67789    1.000
    N1015    N        0.13178    0.91261    0.71678    1.000
    N1016    N        0.12986    0.98497    0.69023    1.000
    N1017    N        0.11883    0.92727    0.65542    1.000
    Si1018   Si       0.16758    0.99275    0.67118    1.000
    N1019    N        0.13915    0.80278    0.77268    1.000
    Si1020   Si       0.14358    0.83846    0.79816    1.000
    N1021    N        0.12190    0.83466    0.83440    1.000
    Si1022   Si       0.12201    0.79738    0.85785    1.000
    N1023    N        0.12769    0.87284    0.77654    1.000
    N1024    N        0.12928    0.76539    0.82860    1.000
    Si1025   Si       0.11071    0.77332    0.78794    1.000
    Si1026   Si       0.15091    0.93809    0.79861    1.000
    N1027    N        0.13691    0.96726    0.85934    1.000
    Si1028   Si       0.14821    0.99745    0.83235    1.000
    N1029    N        0.15942    0.98020    0.79414    1.000
    Si1030   Si       0.15852    0.93034    0.87249    1.000
    N1031    N        0.14549    0.80420    0.97590    1.000
    N1032    N        0.14397    0.79740    0.89506    1.000
    Si1033   Si       0.13745    0.81884    0.93522    1.000
    N1034    N        0.15671    0.85772    0.93734    1.000
    N1035    N        0.14961    0.00664    0.92135    1.000
    N1036    N        0.14539    0.92555    0.96414    1.000
    Si1037   Si       0.13537    0.89599    0.93464    1.000
    N1038    N        0.13297    0.90174    0.89222    1.000
    N1039    N        0.12755    0.98003    0.99793    1.000
    N1040    N        0.18374    0.06804    0.06979    1.000
    N1041    N        0.20954    0.09161    0.01089    1.000
    Si1042   Si       0.20620    0.09802    0.09326    1.000
    Si1043   Si       0.20368    0.02852    0.07351    1.000
    Si1044   Si       0.17352    0.06740    0.02745    1.000
    N1045    N        0.16991    0.02934    0.00809    1.000
    N1046    N        0.18760    0.13815    0.09527    1.000
    N1047    N        0.17846    0.21589    0.05308    1.000
    Si1048   Si       0.18627    0.23399    0.09187    1.000
    Si1049   Si       0.17005    0.17517    0.07145    1.000
    N1050    N        0.19922    0.19833    0.11300    1.000
    Si1051   Si       0.18866    0.11412    0.24059    1.000
    Si1052   Si       0.21729    0.11154    0.17008    1.000
    Si1053   Si       0.21261    0.04308    0.14338    1.000
    N1054    N        0.18145    0.10920    0.19559    1.000
    N1055    N        0.20929    0.08622    0.13486    1.000
    N1056    N        0.17353    0.02467    0.13884    1.000
    N1057    N        0.21926    0.01036    0.24882    1.000
    Si1058   Si       0.20180    0.22447    0.20992    1.000
    N1059    N        0.21556    0.25767    0.18733    1.000
    N1060    N        0.22274    0.15367    0.15599    1.000
    Si1061   Si       0.18681    0.16116    0.13381    1.000
    N1062    N        0.17264    0.20038    0.19166    1.000
    Si1063   Si       0.19992    0.04346    0.26990    1.000
    N1064    N        0.17978    0.11726    0.34925    1.000
    N1065    N        0.21511    0.04229    0.31223    1.000
    N1066    N        0.21245    0.07887    0.25101    1.000
    Si1067   Si       0.18973    0.01186    0.32853    1.000
    Si1068   Si       0.21821    0.13363    0.35165    1.000
    Si1069   Si       0.17289    0.21062    0.27588    1.000
    N1070    N        0.21096    0.19012    0.28269    1.000
    Si1071   Si       0.18107    0.25660    0.34107    1.000
    N1072    N        0.18534    0.23985    0.24726    1.000
    N1073    N        0.17418    0.03070    0.46873    1.000
    N1074    N        0.19592    0.02122    0.40708    1.000
    Si1075   Si       0.19093    0.05373    0.43578    1.000
    Si1076   Si       0.20498    0.01193    0.49221    1.000
    N1077    N        0.21916    0.14053    0.46261    1.000
    N1078    N        0.18258    0.23076    0.37563    1.000
    Si1079   Si       0.20616    0.14844    0.42369    1.000
    N1080    N        0.21357    0.19111    0.41896    1.000
    Si1081   Si       0.19764    0.16491    0.49212    1.000
    Si1082   Si       0.21438    0.22154    0.45122    1.000
    Si1083   Si       0.21769    0.20538    0.38014    1.000
    N1084    N        0.16517    0.14041    0.41285    1.000
    N1085    N        0.18077    0.24941    0.44615    1.000
    N1086    N        0.21246    0.20689    0.49249    1.000
    N1087    N        0.19519    0.02469    0.57752    1.000
    Si1088   Si       0.20755    0.05832    0.55420    1.000
    N1089    N        0.16678    0.07693    0.54048    1.000
    Si1090   Si       0.16803    0.12159    0.54648    1.000
    N1091    N        0.20185    0.14131    0.52921    1.000
    N1092    N        0.20641    0.23226    0.56056    1.000
    Si1093   Si       0.20652    0.24327    0.51827    1.000
    N1094    N        0.17528    0.19546    0.60908    1.000
    Si1095   Si       0.16804    0.21690    0.57316    1.000
    Si1096   Si       0.18380    0.15201    0.61725    1.000
    Si1097   Si       0.20181    0.05861    0.67666    1.000
    N1098    N        0.20460    0.01432    0.67921    1.000
    N1099    N        0.21508    0.07142    0.71563    1.000
    N1100    N        0.16339    0.21603    0.67792    1.000
    N1101    N        0.21879    0.18271    0.65583    1.000
    Si1102   Si       0.19222    0.21486    0.64612    1.000
    N1103    N        0.18782    0.14876    0.70955    1.000
    N1104    N        0.21794    0.24968    0.63427    1.000
    N1105    N        0.20728    0.03737    0.77956    1.000
    Si1106   Si       0.19512    0.05382    0.81975    1.000
    N1107    N        0.18069    0.10539    0.76727    1.000
    N1108    N        0.17906    0.02238    0.84630    1.000
    Si1109   Si       0.20616    0.11438    0.85203    1.000
    Si1110   Si       0.19048    0.06634    0.75107    1.000
    N1111    N        0.16326    0.08439    0.82858    1.000
    Si1112   Si       0.17278    0.00790    0.76381    1.000
    N1113    N        0.19906    0.18011    0.77214    1.000
    Si1114   Si       0.20266    0.23209    0.86217    1.000
    N1115    N        0.20166    0.15073    0.82949    1.000
    N1116    N        0.19361    0.24758    0.76025    1.000
    N1117    N        0.17478    0.19773    0.86480    1.000
    Si1118   Si       0.17040    0.21170    0.76735    1.000
    Si1119   Si       0.19916    0.14078    0.75111    1.000
    N1120    N        0.21483    0.22152    0.82018    1.000
    Si1121   Si       0.16418    0.18045    0.82524    1.000
    Si1122   Si       0.17667    0.03084    0.89014    1.000
    N1123    N        0.18073    0.12398    0.88489    1.000
    Si1124   Si       0.20410    0.07685    0.95484    1.000
    N1125    N        0.20078    0.06324    0.90991    1.000
    N1126    N        0.22432    0.04186    0.96437    1.000
    Si1127   Si       0.21040    0.01264    0.99349    1.000
    N1128    N        0.22044    0.17077    0.91162    1.000
    Si1129   Si       0.21211    0.25457    0.96872    1.000
    N1130    N        0.20027    0.21670    0.95350    1.000
    Si1131   Si       0.18017    0.16681    0.89348    1.000
    Si1132   Si       0.21410    0.17659    0.95335    1.000
    N1133    N        0.19257    0.15171    0.98328    1.000
    N1134    N        0.20203    0.29041    0.05298    1.000
    N1135    N        0.20504    0.35222    0.05021    1.000
    Si1136   Si       0.17786    0.32099    0.06881    1.000
    Si1137   Si       0.17891    0.30089    0.01472    1.000
    N1138    N        0.16532    0.32094    0.10922    1.000
    N1139    N        0.21019    0.37751    0.11921    1.000
    Si1140   Si       0.20427    0.38825    0.07507    1.000
    N1141    N        0.20457    0.45635    0.10129    1.000
    N1142    N        0.21076    0.49540    0.03885    1.000
    Si1143   Si       0.18122    0.50326    0.06848    1.000
    Si1144   Si       0.20680    0.48997    0.99561    1.000
    Si1145   Si       0.21725    0.33728    0.20577    1.000
    N1146    N        0.21006    0.32163    0.16177    1.000
    N1147    N        0.21389    0.37381    0.22779    1.000
    N1148    N        0.18512    0.30821    0.21883    1.000
    Si1149   Si       0.18347    0.34784    0.13907    1.000
    Si1150   Si       0.18624    0.28917    0.18070    1.000
    N1151    N        0.21072    0.47978    0.17114    1.000
    N1152    N        0.18700    0.49313    0.23856    1.000
    Si1153   Si       0.18915    0.48167    0.13404    1.000
    N1154    N        0.18106    0.29890    0.29124    1.000
    N1155    N        0.19368    0.37333    0.30001    1.000
    N1156    N        0.18438    0.37015    0.36372    1.000
    Si1157   Si       0.19444    0.28229    0.25428    1.000
    N1158    N        0.22172    0.27081    0.33485    1.000
    Si1159   Si       0.18880    0.38346    0.26071    1.000
    Si1160   Si       0.18047    0.42630    0.35728    1.000
    Si1161   Si       0.21271    0.46278    0.25238    1.000
    N1162    N        0.18930    0.42703    0.25572    1.000
    N1163    N        0.19235    0.46928    0.35345    1.000
    Si1164   Si       0.17385    0.28446    0.47224    1.000
    Si1165   Si       0.20829    0.35150    0.46936    1.000
    N1166    N        0.21080    0.30811    0.46493    1.000
    N1167    N        0.21182    0.37191    0.42976    1.000
    Si1168   Si       0.17725    0.37965    0.40466    1.000
    N1169    N        0.17356    0.35773    0.49410    1.000
    N1170    N        0.19634    0.50130    0.48855    1.000
    N1171    N        0.17207    0.44085    0.46911    1.000
    Si1172   Si       0.19126    0.50191    0.38106    1.000
    N1173    N        0.17837    0.49087    0.42041    1.000
    Si1174   Si       0.20547    0.45868    0.49009    1.000
    N1175    N        0.16812    0.42252    0.39968    1.000
    Si1176   Si       0.21382    0.35734    0.59856    1.000
    N1177    N        0.17564    0.34183    0.60962    1.000
    N1178    N        0.21563    0.37757    0.55897    1.000
    N1179    N        0.17191    0.26672    0.51202    1.000
    Si1180   Si       0.18276    0.40635    0.55174    1.000
    N1181    N        0.17937    0.42292    0.59256    1.000
    N1182    N        0.18886    0.48900    0.57212    1.000
    N1183    N        0.20385    0.43842    0.52929    1.000
    Si1184   Si       0.21571    0.42794    0.61449    1.000
    Si1185   Si       0.22396    0.46572    0.55588    1.000
    Si1186   Si       0.19951    0.27233    0.72544    1.000
    N1187    N        0.20409    0.31292    0.67038    1.000
    N1188    N        0.21265    0.31379    0.73499    1.000
    Si1189   Si       0.21593    0.34326    0.70131    1.000
    Si1190   Si       0.16855    0.31594    0.64475    1.000
    N1191    N        0.20728    0.45811    0.64360    1.000
    Si1192   Si       0.16565    0.39047    0.73038    1.000
    Si1193   Si       0.16567    0.46452    0.72464    1.000
    N1194    N        0.20713    0.38207    0.71975    1.000
    Si1195   Si       0.19112    0.49639    0.65791    1.000
    N1196    N        0.20565    0.45447    0.73543    1.000
    N1197    N        0.18224    0.35019    0.83889    1.000
    Si1198   Si       0.17919    0.36176    0.79571    1.000
    N1199    N        0.18088    0.26820    0.87078    1.000
    N1200    N        0.16675    0.39919    0.77229    1.000
    N1201    N        0.19573    0.45251    0.80786    1.000
    Si1202   Si       0.20940    0.46281    0.84860    1.000
    Si1203   Si       0.21159    0.47704    0.77272    1.000
    Si1204   Si       0.20669    0.34898    0.87446    1.000
    Si1205   Si       0.21517    0.33170    0.94550    1.000
    N1206    N        0.18983    0.35005    0.91448    1.000
    N1207    N        0.19623    0.33177    0.98495    1.000
    N1208    N        0.21935    0.28774    0.94048    1.000
    N1209    N        0.17642    0.26174    0.99544    1.000
    Si1210   Si       0.17545    0.48989    0.90868    1.000
    N1211    N        0.16975    0.46576    0.98851    1.000
    N1212    N        0.17993    0.40599    0.95636    1.000
    N1213    N        0.20793    0.47144    0.93111    1.000
    Si1214   Si       0.21197    0.43482    0.95659    1.000
    N1215    N        0.17578    0.46230    0.87473    1.000
    N1216    N        0.20843    0.57917    0.10139    1.000
    Si1217   Si       0.20858    0.61839    0.08607    1.000
    Si1218   Si       0.19128    0.61937    0.02727    1.000
    N1219    N        0.17963    0.51619    0.11040    1.000
    Si1220   Si       0.17232    0.55722    0.09838    1.000
    N1221    N        0.17720    0.59146    0.99997    1.000
    N1222    N        0.16883    0.62168    0.06698    1.000
    N1223    N        0.18325    0.66026    0.01027    1.000
    N1224    N        0.17970    0.72522    0.04395    1.000
    Si1225   Si       0.20398    0.69547    0.02538    1.000
    N1226    N        0.17725    0.70552    0.10378    1.000
    Si1227   Si       0.16930    0.74372    0.08366    1.000
    Si1228   Si       0.21690    0.68828    0.10181    1.000
    Si1229   Si       0.16557    0.75345    0.01421    1.000
    N1230    N        0.22251    0.64707    0.11527    1.000
    N1231    N        0.21010    0.58958    0.22368    1.000
    Si1232   Si       0.17021    0.57534    0.20754    1.000
    Si1233   Si       0.20093    0.51063    0.20070    1.000
    N1234    N        0.18270    0.68572    0.24137    1.000
    N1235    N        0.19856    0.65456    0.17852    1.000
    Si1236   Si       0.21197    0.67831    0.21211    1.000
    Si1237   Si       0.18558    0.75625    0.21636    1.000
    N1238    N        0.20800    0.53424    0.32178    1.000
    Si1239   Si       0.22173    0.61746    0.25585    1.000
    N1240    N        0.18568    0.62043    0.28164    1.000
    Si1241   Si       0.16493    0.53535    0.32450    1.000
    N1242    N        0.16741    0.63327    0.34710    1.000
    Si1243   Si       0.18475    0.65037    0.31236    1.000
    Si1244   Si       0.18453    0.71101    0.34936    1.000
    N1245    N        0.17400    0.69432    0.30801    1.000
    Si1246   Si       0.19601    0.71191    0.27584    1.000
    N1247    N        0.19131    0.75147    0.26074    1.000
    N1248    N        0.19605    0.61657    0.40969    1.000
    N1249    N        0.18968    0.55366    0.43558    1.000
    Si1250   Si       0.17518    0.51767    0.45521    1.000
    Si1251   Si       0.16689    0.58649    0.42263    1.000
    Si1252   Si       0.16894    0.74514    0.41405    1.000
    N1253    N        0.21015    0.74520    0.42363    1.000
    Si1254   Si       0.17662    0.64770    0.38850    1.000
    N1255    N        0.18741    0.70713    0.48912    1.000
    N1256    N        0.19735    0.68562    0.38553    1.000
    Si1257   Si       0.22322    0.70491    0.41371    1.000
    Si1258   Si       0.18729    0.58056    0.54944    1.000
    N1259    N        0.18668    0.62250    0.56262    1.000
    N1260    N        0.18038    0.55803    0.58667    1.000
    N1261    N        0.18732    0.68508    0.55724    1.000
    Si1262   Si       0.19311    0.71916    0.52954    1.000
    Si1263   Si       0.21477    0.65271    0.54921    1.000
    Si1264   Si       0.16863    0.65853    0.58759    1.000
    N1265    N        0.16986    0.75405    0.54037    1.000
    Si1266   Si       0.19075    0.57407    0.62618    1.000
    N1267    N        0.19879    0.53957    0.65154    1.000
    N1268    N        0.19448    0.56087    0.71429    1.000
    Si1269   Si       0.16953    0.59518    0.71833    1.000
    N1270    N        0.18478    0.63108    0.69946    1.000
    Si1271   Si       0.19155    0.66770    0.71804    1.000
    Si1272   Si       0.16728    0.63563    0.65868    1.000
    N1273    N        0.20377    0.69597    0.68612    1.000
    N1274    N        0.19242    0.65803    0.62752    1.000
    Si1275   Si       0.19307    0.69993    0.64224    1.000
    Si1276   Si       0.16208    0.72484    0.74146    1.000
    Si1277   Si       0.18980    0.52964    0.84898    1.000
    Si1278   Si       0.19534    0.62120    0.78037    1.000
    Si1279   Si       0.19738    0.60202    0.85708    1.000
    N1280    N        0.19580    0.51767    0.77109    1.000
    N1281    N        0.21094    0.56770    0.83527    1.000
    Si1282   Si       0.21544    0.55395    0.75359    1.000
    N1283    N        0.19730    0.63083    0.82347    1.000
    Si1284   Si       0.18929    0.66891    0.84505    1.000
    N1285    N        0.20641    0.65816    0.75843    1.000
    Si1286   Si       0.21041    0.69250    0.78439    1.000
    N1287    N        0.20044    0.72868    0.75963    1.000
    N1288    N        0.17742    0.69798    0.81460    1.000
    N1289    N        0.21749    0.69294    0.86747    1.000
    N1290    N        0.18316    0.52877    0.89156    1.000
    N1291    N        0.20563    0.53152    0.97919    1.000
    Si1292   Si       0.16841    0.55397    0.97931    1.000
    N1293    N        0.22424    0.60940    0.88946    1.000
    Si1294   Si       0.21359    0.72263    0.96133    1.000
    N1295    N        0.19079    0.75418    0.97950    1.000
    N1296    N        0.18448    0.70108    0.93300    1.000
    Si1297   Si       0.20946    0.71903    0.90099    1.000
    N1298    N        0.19670    0.75515    0.88313    1.000
    Si1299   Si       0.19769    0.80356    0.06589    1.000
    N1300    N        0.20202    0.77046    0.09241    1.000
    N1301    N        0.18058    0.83888    0.08573    1.000
    N1302    N        0.17144    0.79414    0.03234    1.000
    Si1303   Si       0.16780    0.87015    0.05778    1.000
    N1304    N        0.20126    0.88362    0.03461    1.000
    N1305    N        0.21672    0.92220    0.08561    1.000
    N1306    N        0.18299    0.95360    0.02490    1.000
    Si1307   Si       0.18234    0.91472    0.11027    1.000
    Si1308   Si       0.21181    0.92639    0.04423    1.000
    N1309    N        0.17787    0.99538    0.07569    1.000
    Si1310   Si       0.16697    0.98691    0.11716    1.000
    Si1311   Si       0.21247    0.85143    0.23266    1.000
    N1312    N        0.17876    0.81345    0.15337    1.000
    N1313    N        0.21556    0.76961    0.18629    1.000
    Si1314   Si       0.16697    0.84515    0.12469    1.000
    N1315    N        0.18709    0.88070    0.13698    1.000
    Si1316   Si       0.21945    0.80818    0.16666    1.000
    N1317    N        0.16612    0.79679    0.22248    1.000
    N1318    N        0.22450    0.84652    0.19067    1.000
    Si1319   Si       0.21761    0.88334    0.16706    1.000
    N1320    N        0.17884    0.95053    0.13538    1.000
    Si1321   Si       0.17270    0.94176    0.17863    1.000
    Si1322   Si       0.22093    0.99265    0.20885    1.000
    Si1323   Si       0.21910    0.92230    0.23245    1.000
    N1324    N        0.18164    0.97833    0.19991    1.000
    N1325    N        0.20074    0.91404    0.19366    1.000
    N1326    N        0.19722    0.80366    0.31239    1.000
    Si1327   Si       0.18600    0.79360    0.26847    1.000
    N1328    N        0.17160    0.85904    0.24750    1.000
    N1329    N        0.16991    0.98474    0.29932    1.000
    Si1330   Si       0.19330    0.94663    0.29877    1.000
    N1331    N        0.18660    0.92647    0.26092    1.000
    N1332    N        0.18145    0.92380    0.33373    1.000
    N1333    N        0.21787    0.98912    0.35277    1.000
    N1334    N        0.19612    0.82043    0.41477    1.000
    Si1335   Si       0.21179    0.85965    0.41052    1.000
    N1336    N        0.19362    0.93843    0.47105    1.000
    N1337    N        0.18458    0.89002    0.39448    1.000
    Si1338   Si       0.19964    0.92578    0.37409    1.000
    Si1339   Si       0.21907    0.98799    0.39644    1.000
    N1340    N        0.19084    0.95518    0.40635    1.000
    Si1341   Si       0.16494    0.94547    0.43856    1.000
    N1342    N        0.18423    0.84392    0.60827    1.000
    N1343    N        0.21125    0.80969    0.55491    1.000
    Si1344   Si       0.17179    0.79279    0.55731    1.000
    N1345    N        0.18669    0.87310    0.51622    1.000
    N1346    N        0.16370    0.78106    0.59942    1.000
    N1347    N        0.18546    0.98478    0.51723    1.000
    Si1348   Si       0.18810    0.99794    0.60942    1.000
    N1349    N        0.16863    0.96621    0.58461    1.000
    Si1350   Si       0.16902    0.99885    0.55237    1.000
    Si1351   Si       0.16523    0.95242    0.49900    1.000
    Si1352   Si       0.18665    0.88863    0.61884    1.000
    Si1353   Si       0.18488    0.80520    0.62757    1.000
    Si1354   Si       0.18953    0.86651    0.69557    1.000
    N1355    N        0.17650    0.79357    0.66816    1.000
    Si1356   Si       0.20994    0.79653    0.69597    1.000
    N1357    N        0.19620    0.79327    0.73847    1.000
    N1358    N        0.16559    0.85089    0.72863    1.000
    N1359    N        0.16819    0.88164    0.65920    1.000
    Si1360   Si       0.22447    0.95083    0.64613    1.000
    Si1361   Si       0.19783    0.93753    0.74047    1.000
    N1362    N        0.18238    0.95275    0.66147    1.000
    N1363    N        0.19146    0.90863    0.70985    1.000
    N1364    N        0.19011    0.98081    0.73363    1.000
    N1365    N        0.22245    0.91492    0.62373    1.000
    N1366    N        0.18448    0.85129    0.80668    1.000
    N1367    N        0.20119    0.78353    0.80737    1.000
    Si1368   Si       0.21264    0.82121    0.82457    1.000
    N1369    N        0.20899    0.82218    0.86750    1.000
    Si1370   Si       0.21366    0.76949    0.76932    1.000
    Si1371   Si       0.19670    0.89605    0.80448    1.000
    N1372    N        0.17788    0.91635    0.77176    1.000
    N1373    N        0.17181    0.91957    0.83174    1.000
    N1374    N        0.21891    0.87761    0.91718    1.000
    N1375    N        0.19770    0.80695    0.93178    1.000
    Si1376   Si       0.18708    0.79365    0.89334    1.000
    Si1377   Si       0.18922    0.79771    0.97413    1.000
    Si1378   Si       0.19983    0.84909    0.94437    1.000
    N1379    N        0.20772    0.83612    0.98385    1.000
    Si1380   Si       0.22137    0.91974    0.92209    1.000
    N1381    N        0.18566    0.94262    0.90582    1.000
    N1382    N        0.21213    0.00288    0.90134    1.000
    N1383    N        0.21958    0.93150    0.96398    1.000
    N1384    N        0.18520    0.98615    0.96761    1.000
    Si1385   Si       0.18082    0.94432    0.98159    1.000
    Si1386   Si       0.18253    0.98044    0.92598    1.000
    N1387    N        0.24565    0.09419    0.07673    1.000
    N1388    N        0.26617    0.11817    0.01497    1.000
    Si1389   Si       0.24365    0.08116    0.03647    1.000
    Si1390   Si       0.26606    0.01641    0.02507    1.000
    N1391    N        0.23212    0.02417    0.10669    1.000
    Si1392   Si       0.27800    0.09340    0.10825    1.000
    N1393    N        0.27814    0.05747    0.02217    1.000
    N1394    N        0.22575    0.03128    0.03752    1.000
    N1395    N        0.27106    0.19855    0.09261    1.000
    Si1396   Si       0.24049    0.21501    0.11842    1.000
    N1397    N        0.22529    0.25209    0.10373    1.000
    N1398    N        0.28337    0.19551    0.02590    1.000
    Si1399   Si       0.28339    0.22215    0.05961    1.000
    N1400    N        0.25100    0.10433    0.19545    1.000
    N1401    N        0.23582    0.02371    0.17572    1.000
    Si1402   Si       0.24697    0.10158    0.23829    1.000
    Si1403   Si       0.27752    0.03505    0.16485    1.000
    N1404    N        0.28073    0.07609    0.14775    1.000
    N1405    N        0.22505    0.13695    0.24596    1.000
    N1406    N        0.25841    0.21725    0.15626    1.000
    Si1407   Si       0.25038    0.18013    0.17897    1.000
    N1408    N        0.23510    0.19739    0.21731    1.000
    Si1409   Si       0.25822    0.25217    0.18177    1.000
    N1410    N        0.28792    0.13202    0.12623    1.000
    N1411    N        0.24105    0.10994    0.32284    1.000
    Si1412   Si       0.24705    0.06831    0.33226    1.000
    Si1413   Si       0.27527    0.12185    0.30143    1.000
    Si1414   Si       0.24133    0.18703    0.31235    1.000
    N1415    N        0.26419    0.22327    0.31408    1.000
    N1416    N        0.27064    0.16367    0.28551    1.000
    Si1417   Si       0.25961    0.25251    0.34683    1.000
    Si1418   Si       0.24160    0.17553    0.25386    1.000
    N1419    N        0.22191    0.17611    0.34837    1.000
    N1420    N        0.25807    0.06681    0.37619    1.000
    Si1421   Si       0.24594    0.10733    0.46978    1.000
    Si1422   Si       0.24792    0.09112    0.40944    1.000
    N1423    N        0.27628    0.10740    0.43702    1.000
    N1424    N        0.22616    0.07570    0.44547    1.000
    N1425    N        0.22788    0.12566    0.39357    1.000
    N1426    N        0.24674    0.25006    0.44884    1.000
    Si1427   Si       0.27570    0.23649    0.42088    1.000
    N1428    N        0.25368    0.23149    0.38422    1.000
    N1429    N        0.26662    0.03636    0.59712    1.000
    N1430    N        0.26176    0.10246    0.50899    1.000
    Si1431   Si       0.24036    0.12362    0.54155    1.000
    Si1432   Si       0.23784    0.09354    0.61169    1.000
    Si1433   Si       0.26242    0.01422    0.50979    1.000
    N1434    N        0.22666    0.03907    0.51966    1.000
    N1435    N        0.23192    0.09119    0.56918    1.000
    Si1436   Si       0.23257    0.23860    0.59541    1.000
    N1437    N        0.25274    0.20028    0.59934    1.000
    N1438    N        0.26726    0.15440    0.55328    1.000
    N1439    N        0.22207    0.13570    0.61430    1.000
    N1440    N        0.27908    0.09531    0.62568    1.000
    Si1441   Si       0.24367    0.02734    0.63778    1.000
    Si1442   Si       0.24737    0.09802    0.71736    1.000
    N1443    N        0.24891    0.12310    0.68199    1.000
    N1444    N        0.27938    0.01544    0.66074    1.000
    N1445    N        0.26002    0.01082    0.73130    1.000
    N1446    N        0.22205    0.06498    0.63936    1.000
    N1447    N        0.24061    0.12812    0.74703    1.000
    N1448    N        0.25713    0.18731    0.71287    1.000
    Si1449   Si       0.24770    0.16789    0.62570    1.000
    Si1450   Si       0.26526    0.22903    0.72046    1.000
    Si1451   Si       0.22770    0.16147    0.69357    1.000
    N1452    N        0.23435    0.25505    0.70386    1.000
    Si1453   Si       0.26321    0.08119    0.85943    1.000
    Si1454   Si       0.24853    0.01682    0.77588    1.000
    N1455    N        0.25305    0.12382    0.86703    1.000
    N1456    N        0.22504    0.07573    0.84010    1.000
    N1457    N        0.27600    0.10912    0.80779    1.000
    N1458    N        0.28598    0.04117    0.78197    1.000
    Si1459   Si       0.27475    0.13376    0.77363    1.000
    N1460    N        0.26659    0.17179    0.79907    1.000
    N1461    N        0.25967    0.22980    0.76360    1.000
    N1462    N        0.27065    0.18170    0.86217    1.000
    Si1463   Si       0.22655    0.24856    0.78717    1.000
    Si1464   Si       0.22499    0.18134    0.80760    1.000
    Si1465   Si       0.28070    0.22368    0.86536    1.000
    Si1466   Si       0.27770    0.14679    0.83536    1.000
    Si1467   Si       0.27171    0.09849    0.93057    1.000
    Si1468   Si       0.23743    0.03615    0.92275    1.000
    N1469    N        0.26536    0.06519    0.90078    1.000
    N1470    N        0.23518    0.10642    0.95251    1.000
    Si1471   Si       0.23072    0.12839    0.99051    1.000
    N1472    N        0.25328    0.17108    0.97330    1.000
    N1473    N        0.24953    0.25016    0.98887    1.000
    Si1474   Si       0.25735    0.15751    0.89476    1.000
    Si1475   Si       0.26767    0.21119    0.98809    1.000
    N1476    N        0.24346    0.24169    0.88066    1.000
    Si1477   Si       0.23729    0.28058    0.07460    1.000
    N1478    N        0.25692    0.31999    0.01291    1.000
    N1479    N        0.25552    0.31092    0.09928    1.000
    Si1480   Si       0.27394    0.27976    0.01259    1.000
    Si1481   Si       0.22615    0.35022    0.01173    1.000
    N1482    N        0.26839    0.26193    0.05163    1.000
    N1483    N        0.26780    0.47439    0.06692    1.000
    Si1484   Si       0.25055    0.42202    0.01435    1.000
    Si1485   Si       0.24156    0.44571    0.08489    1.000
    N1486    N        0.26307    0.41490    0.10931    1.000
    N1487    N        0.22943    0.41757    0.05179    1.000
    N1488    N        0.24529    0.38519    0.99499    1.000
    N1489    N        0.27502    0.28319    0.15848    1.000
    Si1490   Si       0.25037    0.31559    0.14355    1.000
    N1491    N        0.25886    0.32742    0.21132    1.000
    N1492    N        0.26876    0.35366    0.14951    1.000
    Si1493   Si       0.27054    0.29377    0.23717    1.000
    N1494    N        0.28199    0.25628    0.21907    1.000
    Si1495   Si       0.24509    0.45655    0.18138    1.000
    Si1496   Si       0.24682    0.39198    0.13993    1.000
    Si1497   Si       0.24304    0.40640    0.21870    1.000
    N1498    N        0.27926    0.39235    0.23866    1.000
    N1499    N        0.24269    0.41336    0.17535    1.000
    N1500    N        0.24285    0.44967    0.22470    1.000
    N1501    N        0.27998    0.47905    0.17264    1.000
    N1502    N        0.24105    0.33524    0.32460    1.000
    N1503    N        0.23762    0.28600    0.26521    1.000
    Si1504   Si       0.27866    0.34691    0.34333    1.000
    N1505    N        0.25591    0.37722    0.36777    1.000
    Si1506   Si       0.22199    0.30273    0.30493    1.000
    Si1507   Si       0.22141    0.37439    0.33565    1.000
    Si1508   Si       0.26323    0.42046    0.36001    1.000
    N1509    N        0.25689    0.48635    0.34506    1.000
    N1510    N        0.23331    0.47614    0.28801    1.000
    Si1511   Si       0.22661    0.46286    0.32800    1.000
    N1512    N        0.22347    0.42060    0.33827    1.000
    Si1513   Si       0.26453    0.50668    0.30541    1.000
    Si1514   Si       0.24722    0.28613    0.47387    1.000
    Si1515   Si       0.24838    0.38277    0.41065    1.000
    N1516    N        0.28246    0.36266    0.43005    1.000
    N1517    N        0.24477    0.35937    0.49251    1.000
    Si1518   Si       0.28127    0.44585    0.49417    1.000
    N1519    N        0.24340    0.45014    0.47179    1.000
    N1520    N        0.25463    0.42619    0.40332    1.000
    N1521    N        0.27419    0.49144    0.42390    1.000
    Si1522   Si       0.26764    0.50676    0.38186    1.000
    Si1523   Si       0.26723    0.45098    0.43432    1.000
    N1524    N        0.24749    0.33138    0.60120    1.000
    Si1525   Si       0.27196    0.29603    0.61048    1.000
    N1526    N        0.26186    0.26679    0.58263    1.000
    N1527    N        0.24210    0.26710    0.51216    1.000
    Si1528   Si       0.24837    0.37994    0.53284    1.000
    Si1529   Si       0.27280    0.26104    0.54169    1.000
    N1530    N        0.27439    0.41236    0.51744    1.000
    N1531    N        0.24673    0.44845    0.58925    1.000
    N1532    N        0.24629    0.49366    0.52955    1.000
    N1533    N        0.27310    0.29045    0.65170    1.000
    N1534    N        0.25651    0.35342    0.69141    1.000
    Si1535   Si       0.23412    0.27926    0.66545    1.000
    N1536    N        0.25113    0.42272    0.68458    1.000
    N1537    N        0.23004    0.49643    0.68500    1.000
    Si1538   Si       0.23227    0.41891    0.72343    1.000
    Si1539   Si       0.25633    0.38451    0.66056    1.000
    Si1540   Si       0.24648    0.46175    0.66586    1.000
    N1541    N        0.22413    0.38772    0.62937    1.000
    N1542    N        0.24367    0.28693    0.79670    1.000
    Si1543   Si       0.23346    0.32378    0.77449    1.000
    N1544    N        0.27470    0.34049    0.76378    1.000
    N1545    N        0.24140    0.37681    0.87320    1.000
    N1546    N        0.22306    0.36168    0.78964    1.000
    Si1547   Si       0.26308    0.38229    0.78815    1.000
    N1548    N        0.25477    0.48113    0.78055    1.000
    N1549    N        0.26056    0.41620    0.81805    1.000
    Si1550   Si       0.26299    0.41173    0.86054    1.000
    N1551    N        0.26205    0.40922    0.75213    1.000
    N1552    N        0.22427    0.50258    0.84455    1.000
    Si1553   Si       0.27798    0.45110    0.79944    1.000
    Si1554   Si       0.26201    0.34712    0.89636    1.000
    N1555    N        0.25309    0.35192    0.93894    1.000
    N1556    N        0.23730    0.31557    0.88219    1.000
    Si1557   Si       0.24370    0.27810    0.90470    1.000
    N1558    N        0.27607    0.49247    0.91292    1.000
    N1559    N        0.23858    0.44455    0.87346    1.000
    N1560    N        0.24978    0.42467    0.93653    1.000
    Si1561   Si       0.24726    0.46064    0.91202    1.000
    Si1562   Si       0.26613    0.38952    0.95631    1.000
    N1563    N        0.23130    0.45310    0.99139    1.000
    N1564    N        0.24966    0.54760    0.05661    1.000
    Si1565   Si       0.24674    0.55973    0.09871    1.000
    Si1566   Si       0.25945    0.58371    0.03432    1.000
    N1567    N        0.23149    0.61532    0.04673    1.000
    N1568    N        0.26618    0.51596    0.00115    1.000
    N1569    N        0.27933    0.58735    0.10593    1.000
    Si1570   Si       0.25198    0.50688    0.04292    1.000
    N1571    N        0.27804    0.65345    0.00492    1.000
    Si1572   Si       0.25719    0.65034    0.04249    1.000
    Si1573   Si       0.27661    0.69691    0.00195    1.000
    N1574    N        0.22693    0.67990    0.05876    1.000
    N1575    N        0.24227    0.71586    0.12346    1.000
    N1576    N        0.23361    0.70698    0.99690    1.000
    N1577    N        0.24805    0.52358    0.12308    1.000
    Si1578   Si       0.26441    0.51808    0.16116    1.000
    Si1579   Si       0.24207    0.57497    0.20022    1.000
    N1580    N        0.24924    0.59933    0.16685    1.000
    N1581    N        0.23809    0.53276    0.19338    1.000
    N1582    N        0.27826    0.57612    0.22370    1.000
    Si1583   Si       0.25208    0.74685    0.19552    1.000
    Si1584   Si       0.23182    0.63897    0.15676    1.000
    N1585    N        0.23586    0.71296    0.21441    1.000
    Si1586   Si       0.27757    0.69898    0.14370    1.000
    N1587    N        0.23911    0.65118    0.23599    1.000
    N1588    N        0.26668    0.66359    0.16594    1.000
    Si1589   Si       0.25955    0.69160    0.24479    1.000
    N1590    N        0.23527    0.59467    0.35542    1.000
    Si1591   Si       0.23757    0.55307    0.34549    1.000
    N1592    N        0.25520    0.60715    0.28107    1.000
    N1593    N        0.27369    0.54758    0.32016    1.000
    Si1594   Si       0.25336    0.62094    0.32353    1.000
    Si1595   Si       0.24916    0.69223    0.31969    1.000
    N1596    N        0.23848    0.70395    0.27966    1.000
    N1597    N        0.22903    0.72375    0.34491    1.000
    N1598    N        0.22657    0.65573    0.32124    1.000
    Si1599   Si       0.25836    0.74124    0.37290    1.000
    N1600    N        0.25528    0.57592    0.41908    1.000
    Si1601   Si       0.23773    0.60730    0.39663    1.000
    N1602    N        0.24476    0.54020    0.46979    1.000
    Si1603   Si       0.22878    0.54176    0.42674    1.000
    Si1604   Si       0.27564    0.56893    0.45682    1.000
    N1605    N        0.22920    0.52693    0.38600    1.000
    Si1606   Si       0.22614    0.68606    0.48982    1.000
    N1607    N        0.26690    0.63786    0.40431    1.000
    N1608    N        0.23800    0.68822    0.44934    1.000
    Si1609   Si       0.27857    0.70154    0.44324    1.000
    N1610    N        0.26675    0.70890    0.39962    1.000
    N1611    N        0.28561    0.73772    0.46596    1.000
    Si1612   Si       0.26267    0.56312    0.55194    1.000
    N1613    N        0.27125    0.60453    0.54238    1.000
    Si1614   Si       0.22671    0.52541    0.50591    1.000
    N1615    N        0.27359    0.55537    0.59396    1.000
    Si1616   Si       0.26839    0.62908    0.50738    1.000
    N1617    N        0.22119    0.55782    0.53410    1.000
    Si1618   Si       0.26786    0.73844    0.54068    1.000
    N1619    N        0.24468    0.65366    0.57949    1.000
    N1620    N        0.23694    0.71111    0.52439    1.000
    N1621    N        0.26785    0.74544    0.58302    1.000
    N1622    N        0.22899    0.64686    0.50920    1.000
    N1623    N        0.22784    0.59510    0.62226    1.000
    N1624    N        0.24938    0.53519    0.73434    1.000
    Si1625   Si       0.26337    0.57387    0.63094    1.000
    N1626    N        0.25582    0.55970    0.67118    1.000
    Si1627   Si       0.22467    0.53792    0.69168    1.000
    N1628    N        0.22439    0.72906    0.63708    1.000
    Si1629   Si       0.23219    0.63915    0.61841    1.000
    Si1630   Si       0.23713    0.72457    0.68043    1.000
    N1631    N        0.27412    0.70371    0.69242    1.000
    N1632    N        0.25929    0.65159    0.64890    1.000
    Si1633   Si       0.24550    0.57464    0.81018    1.000
    N1634    N        0.27013    0.53945    0.80158    1.000
    Si1635   Si       0.27499    0.51627    0.76381    1.000
    N1636    N        0.27477    0.60208    0.82578    1.000
    Si1637   Si       0.26852    0.50936    0.83593    1.000
    N1638    N        0.22556    0.59091    0.77403    1.000
    N1639    N        0.24538    0.67522    0.80684    1.000
    Si1640   Si       0.25534    0.69225    0.84560    1.000
    N1641    N        0.27220    0.73091    0.83487    1.000
    Si1642   Si       0.27815    0.64444    0.81502    1.000
    N1643    N        0.26019    0.58559    0.99156    1.000
    N1644    N        0.25695    0.55987    0.93214    1.000
    Si1645   Si       0.25863    0.59828    0.91293    1.000
    Si1646   Si       0.24707    0.54581    0.97332    1.000
    Si1647   Si       0.28314    0.62079    0.97538    1.000
    Si1648   Si       0.28346    0.73796    0.93773    1.000
    N1649    N        0.24134    0.73048    0.92907    1.000
    N1650    N        0.27171    0.63371    0.93422    1.000
    N1651    N        0.27099    0.85878    0.02060    1.000
    N1652    N        0.23329    0.81690    0.04604    1.000
    N1653    N        0.27451    0.76420    0.08845    1.000
    Si1654   Si       0.22731    0.85348    0.01811    1.000
    Si1655   Si       0.27664    0.81905    0.04222    1.000
    Si1656   Si       0.23869    0.75838    0.11217    1.000
    N1657    N        0.27068    0.95819    0.11401    1.000
    Si1658   Si       0.26607    0.99951    0.09889    1.000
    Si1659   Si       0.25524    0.91878    0.10673    1.000
    N1660    N        0.25143    0.92562    0.02859    1.000
    N1661    N        0.24750    0.98876    0.99797    1.000
    N1662    N        0.28306    0.89582    0.08159    1.000
    Si1663   Si       0.28179    0.89634    0.03890    1.000
    N1664    N        0.24684    0.79784    0.13417    1.000
    N1665    N        0.27609    0.78053    0.20764    1.000
    Si1666   Si       0.28135    0.87537    0.24340    1.000
    Si1667   Si       0.26422    0.80286    0.24313    1.000
    N1668    N        0.25177    0.89408    0.14352    1.000
    N1669    N        0.24468    0.95849    0.22618    1.000
    N1670    N        0.23909    0.88450    0.24280    1.000
    N1671    N        0.27193    0.81312    0.32875    1.000
    Si1672   Si       0.23866    0.80500    0.30138    1.000
    N1673    N        0.26681    0.77714    0.27851    1.000
    N1674    N        0.22591    0.81750    0.25685    1.000
    Si1675   Si       0.25044    0.98272    0.26301    1.000
    Si1676   Si       0.24847    0.96238    0.33813    1.000
    N1677    N        0.23570    0.95770    0.29537    1.000
    N1678    N        0.24216    0.92696    0.36111    1.000
    Si1679   Si       0.26469    0.89135    0.36572    1.000
    N1680    N        0.22646    0.87354    0.44989    1.000
    Si1681   Si       0.26806    0.81847    0.37537    1.000
    N1682    N        0.24692    0.85543    0.38551    1.000
    N1683    N        0.25080    0.80383    0.45363    1.000
    N1684    N        0.24859    0.78205    0.38844    1.000
    Si1685   Si       0.25418    0.84470    0.46481    1.000
    Si1686   Si       0.27498    0.77821    0.47769    1.000
    Si1687   Si       0.22340    0.78684    0.42329    1.000
    N1688    N        0.26642    0.93055    0.45066    1.000
    N1689    N        0.26268    0.98706    0.40746    1.000
    Si1690   Si       0.22854    0.91361    0.47085    1.000
    Si1691   Si       0.26841    0.97445    0.44883    1.000
    N1692    N        0.24269    0.99850    0.47380    1.000
    Si1693   Si       0.25084    0.81098    0.53770    1.000
    N1694    N        0.25133    0.84569    0.51001    1.000
    N1695    N        0.26174    0.77554    0.51887    1.000
    N1696    N        0.26880    0.82233    0.57476    1.000
    N1697    N        0.22647    0.87401    0.57282    1.000
    Si1698   Si       0.22617    0.83291    0.58931    1.000
    Si1699   Si       0.22709    0.87663    0.52897    1.000
    N1700    N        0.22836    0.80114    0.62132    1.000
    Si1701   Si       0.24615    0.76189    0.61794    1.000
    N1702    N        0.28196    0.87361    0.61679    1.000
    N1703    N        0.24111    0.91483    0.51409    1.000
    Si1704   Si       0.25097    0.89749    0.59751    1.000
    Si1705   Si       0.26962    0.94101    0.53306    1.000
    N1706    N        0.26139    0.98377    0.54240    1.000
    N1707    N        0.27359    0.92595    0.57742    1.000
    Si1708   Si       0.25970    0.99380    0.58557    1.000
    N1709    N        0.23029    0.98725    0.62108    1.000
    N1710    N        0.23884    0.76579    0.69376    1.000
    Si1711   Si       0.26071    0.84818    0.69847    1.000
    N1712    N        0.26092    0.83463    0.73808    1.000
    N1713    N        0.22061    0.83897    0.68596    1.000
    N1714    N        0.26793    0.89205    0.68993    1.000
    N1715    N        0.24718    0.96092    0.68335    1.000
    Si1716   Si       0.26501    0.93007    0.71084    1.000
    Si1717   Si       0.22532    0.99256    0.70808    1.000
    N1718    N        0.25360    0.83058    0.80766    1.000
    N1719    N        0.26114    0.77075    0.77282    1.000
    Si1720   Si       0.26994    0.86814    0.81941    1.000
    Si1721   Si       0.27442    0.81255    0.77317    1.000
    N1722    N        0.25998    0.87864    0.85917    1.000
    N1723    N        0.25517    0.97967    0.79626    1.000
    N1724    N        0.24062    0.89800    0.80237    1.000
    Si1725   Si       0.25854    0.93602    0.78721    1.000
    N1726    N        0.27471    0.99849    0.86187    1.000
    N1727    N        0.24134    0.93668    0.74655    1.000
    Si1728   Si       0.23663    0.85106    0.88674    1.000
    N1729    N        0.26825    0.83185    0.90793    1.000
    N1730    N        0.27210    0.00539    0.92374    1.000
    Si1731   Si       0.24981    0.98110    0.89252    1.000
    Si1732   Si       0.27808    0.91484    0.87581    1.000
    N1733    N        0.25526    0.93837    0.90204    1.000
    Si1734   Si       0.25099    0.94581    0.99045    1.000
    N1735    N        0.31618    0.07954    0.09021    1.000
    Si1736   Si       0.33314    0.10684    0.06091    1.000
    N1737    N        0.33500    0.09088    0.02205    1.000
    Si1738   Si       0.29757    0.08996    0.00060    1.000
    Si1739   Si       0.32379    0.04628    0.11586    1.000
    Si1740   Si       0.30045    0.16429    0.09867    1.000
    N1741    N        0.31122    0.14307    0.06304    1.000
    N1742    N        0.32433    0.23160    0.06653    1.000
    Si1743   Si       0.29182    0.15319    0.02543    1.000
    N1744    N        0.33893    0.18054    0.11769    1.000
    N1745    N        0.32291    0.10967    0.19556    1.000
    N1746    N        0.30386    0.02119    0.19667    1.000
    Si1747   Si       0.31181    0.01775    0.23881    1.000
    Si1748   Si       0.32118    0.09751    0.23919    1.000
    N1749    N        0.29423    0.01782    0.12720    1.000
    N1750    N        0.33731    0.05836    0.23868    1.000
    Si1751   Si       0.28606    0.11545    0.16893    1.000
    Si1752   Si       0.34030    0.01250    0.17209    1.000
    N1753    N        0.34359    0.25083    0.12945    1.000
    Si1754   Si       0.31753    0.23527    0.23567    1.000
    N1755    N        0.30997    0.19472    0.23837    1.000
    Si1756   Si       0.32075    0.15902    0.21211    1.000
    N1757    N        0.28490    0.15891    0.18537    1.000
    N1758    N        0.31391    0.12146    0.32411    1.000
    N1759    N        0.28891    0.05453    0.32400    1.000
    Si1760   Si       0.30120    0.06566    0.36459    1.000
    Si1761   Si       0.30120    0.01389    0.31263    1.000
    N1762    N        0.28270    0.09847    0.26185    1.000
    Si1763   Si       0.30490    0.23435    0.30919    1.000
    Si1764   Si       0.31177    0.17263    0.27622    1.000
    N1765    N        0.32592    0.19802    0.30775    1.000
    N1766    N        0.33341    0.13993    0.25061    1.000
    N1767    N        0.31925    0.25500    0.27514    1.000
    N1768    N        0.32456    0.06057    0.44635    1.000
    Si1769   Si       0.32705    0.02339    0.47377    1.000
    N1770    N        0.32015    0.03077    0.38443    1.000
    N1771    N        0.32290    0.09468    0.38843    1.000
    Si1772   Si       0.31712    0.09975    0.43016    1.000
    N1773    N        0.31106    0.25930    0.41235    1.000
    N1774    N        0.33480    0.13634    0.44626    1.000
    N1775    N        0.32361    0.24986    0.48077    1.000
    N1776    N        0.32480    0.17830    0.49039    1.000
    Si1777   Si       0.34072    0.24479    0.44149    1.000
    Si1778   Si       0.32176    0.17701    0.44438    1.000
    N1779    N        0.28490    0.19628    0.43316    1.000
    N1780    N        0.31498    0.08127    0.56226    1.000
    Si1781   Si       0.30020    0.06726    0.60051    1.000
    Si1782   Si       0.29828    0.08202    0.52184    1.000
    N1783    N        0.33267    0.10614    0.50976    1.000
    N1784    N        0.29602    0.04164    0.50607    1.000
    N1785    N        0.33215    0.04417    0.62089    1.000
    N1786    N        0.31913    0.18925    0.58874    1.000
    Si1787   Si       0.32214    0.21644    0.51067    1.000
    N1788    N        0.28763    0.22050    0.53530    1.000
    Si1789   Si       0.28041    0.19159    0.56730    1.000
    Si1790   Si       0.32000    0.10406    0.72732    1.000
    N1791    N        0.32187    0.11836    0.68520    1.000
    N1792    N        0.32136    0.01866    0.71515    1.000
    Si1793   Si       0.29463    0.03960    0.73842    1.000
    Si1794   Si       0.28583    0.12214    0.66008    1.000
    N1795    N        0.28412    0.07971    0.72717    1.000
    Si1796   Si       0.31381    0.00684    0.63401    1.000
    N1797    N        0.30689    0.23898    0.70903    1.000
    N1798    N        0.28605    0.16328    0.64560    1.000
    Si1799   Si       0.33958    0.23874    0.67939    1.000
    Si1800   Si       0.32481    0.17494    0.62850    1.000
    N1801    N        0.34261    0.21035    0.64740    1.000
    N1802    N        0.30113    0.06216    0.85018    1.000
    Si1803   Si       0.29991    0.07241    0.80770    1.000
    N1804    N        0.32102    0.14164    0.83755    1.000
    N1805    N        0.32630    0.20381    0.77427    1.000
    Si1806   Si       0.28740    0.21023    0.79069    1.000
    N1807    N        0.28773    0.23837    0.82408    1.000
    N1808    N        0.31200    0.13886    0.75187    1.000
    N1809    N        0.29790    0.07658    0.95965    1.000
    N1810    N        0.33099    0.03568    0.90538    1.000
    Si1811   Si       0.29239    0.03025    0.88764    1.000
    Si1812   Si       0.32961    0.04694    0.94953    1.000
    N1813    N        0.31570    0.01309    0.97283    1.000
    N1814    N        0.29729    0.21044    0.95453    1.000
    N1815    N        0.28451    0.13940    0.92248    1.000
    Si1816   Si       0.30876    0.24360    0.92945    1.000
    N1817    N        0.31848    0.15074    0.98817    1.000
    N1818    N        0.31539    0.22510    0.89063    1.000
    Si1819   Si       0.29377    0.16607    0.95568    1.000
    N1820    N        0.32121    0.30306    0.06050    1.000
    N1821    N        0.30291    0.36282    0.07902    1.000
    Si1822   Si       0.29627    0.32189    0.09309    1.000
    N1823    N        0.31487    0.27254    0.00329    1.000
    Si1824   Si       0.33263    0.34513    0.05143    1.000
    N1825    N        0.32438    0.36153    0.01278    1.000
    Si1826   Si       0.33450    0.26513    0.04230    1.000
    Si1827   Si       0.30264    0.40026    0.09856    1.000
    Si1828   Si       0.30384    0.45727    0.04754    1.000
    N1829    N        0.32388    0.49225    0.03499    1.000
    N1830    N        0.32405    0.43183    0.07549    1.000
    N1831    N        0.29200    0.43324    0.01362    1.000
    Si1832   Si       0.30804    0.50723    0.99673    1.000
    N1833    N        0.32365    0.32112    0.12675    1.000
    N1834    N        0.32509    0.34902    0.19634    1.000
    Si1835   Si       0.31638    0.28036    0.14823    1.000
    Si1836   Si       0.31103    0.35383    0.15473    1.000
    Si1837   Si       0.29574    0.35286    0.22673    1.000
    N1838    N        0.32083    0.39368    0.13745    1.000
    N1839    N        0.32347    0.44707    0.21952    1.000
    Si1840   Si       0.31754    0.48037    0.19069    1.000
    N1841    N        0.30343    0.36734    0.31467    1.000
    N1842    N        0.30313    0.31988    0.25434    1.000
    Si1843   Si       0.33376    0.29520    0.27428    1.000
    Si1844   Si       0.34077    0.35732    0.29219    1.000
    N1845    N        0.30137    0.26279    0.34420    1.000
    N1846    N        0.33995    0.37683    0.25162    1.000
    N1847    N        0.30038    0.49094    0.28832    1.000
    Si1848   Si       0.31707    0.46463    0.31702    1.000
    N1849    N        0.29769    0.43121    0.33649    1.000
    Si1850   Si       0.32838    0.39990    0.33748    1.000
    Si1851   Si       0.32870    0.47752    0.25351    1.000
    N1852    N        0.33346    0.43933    0.28216    1.000
    Si1853   Si       0.31653    0.41448    0.24775    1.000
    N1854    N        0.34697    0.48944    0.33832    1.000
    Si1855   Si       0.31799    0.28982    0.49670    1.000
    Si1856   Si       0.31705    0.28463    0.37646    1.000
    N1857    N        0.31530    0.36610    0.49003    1.000
    Si1858   Si       0.31382    0.34889    0.40320    1.000
    N1859    N        0.29435    0.32192    0.37539    1.000
    N1860    N        0.33106    0.37693    0.37527    1.000
    N1861    N        0.28426    0.30724    0.47532    1.000
    Si1862   Si       0.28126    0.35007    0.47149    1.000
    N1863    N        0.30162    0.43790    0.45473    1.000
    N1864    N        0.30936    0.28684    0.53906    1.000
    N1865    N        0.30968    0.31773    0.60141    1.000
    Si1866   Si       0.33410    0.29746    0.57090    1.000
    N1867    N        0.28610    0.36508    0.55453    1.000
    Si1868   Si       0.28414    0.35496    0.59491    1.000
    Si1869   Si       0.30893    0.38766    0.52590    1.000
    Si1870   Si       0.28745    0.46104    0.60093    1.000
    N1871    N        0.31799    0.43373    0.59145    1.000
    N1872    N        0.29969    0.49806    0.57921    1.000
    N1873    N        0.30854    0.47559    0.50850    1.000
    Si1874   Si       0.28904    0.50073    0.53776    1.000
    N1875    N        0.33501    0.34619    0.66720    1.000
    Si1876   Si       0.31906    0.27401    0.73426    1.000
    Si1877   Si       0.31384    0.30657    0.66952    1.000
    N1878    N        0.30425    0.30721    0.71177    1.000
    N1879    N        0.28937    0.37883    0.63011    1.000
    Si1880   Si       0.28542    0.34553    0.72304    1.000
    Si1881   Si       0.33159    0.37968    0.64049    1.000
    N1882    N        0.31566    0.37833    0.72394    1.000
    N1883    N        0.31364    0.44712    0.71595    1.000
    Si1884   Si       0.30202    0.41520    0.74075    1.000
    N1885    N        0.28756    0.46209    0.64666    1.000
    Si1886   Si       0.32357    0.45152    0.67322    1.000
    N1887    N        0.34206    0.41007    0.66943    1.000
    Si1888   Si       0.31080    0.33800    0.79044    1.000
    N1889    N        0.31510    0.27763    0.77737    1.000
    N1890    N        0.30343    0.31501    0.82652    1.000
    Si1891   Si       0.32776    0.33104    0.85819    1.000
    Si1892   Si       0.28595    0.28015    0.80854    1.000
    N1893    N        0.30574    0.38017    0.79975    1.000
    N1894    N        0.31580    0.43909    0.77896    1.000
    N1895    N        0.29391    0.47352    0.83749    1.000
    Si1896   Si       0.31957    0.45226    0.86587    1.000
    Si1897   Si       0.33375    0.46810    0.75095    1.000
    Si1898   Si       0.33515    0.41154    0.80328    1.000
    N1899    N        0.31606    0.50646    0.75336    1.000
    Si1900   Si       0.31658    0.31235    0.91621    1.000
    N1901    N        0.30498    0.34909    0.89323    1.000
    N1902    N        0.33176    0.32257    0.95484    1.000
    Si1903   Si       0.33576    0.36266    0.97157    1.000
    N1904    N        0.28581    0.27956    0.91765    1.000
    Si1905   Si       0.32001    0.43312    0.98073    1.000
    N1906    N        0.29731    0.42058    0.88680    1.000
    Si1907   Si       0.31754    0.39023    0.90930    1.000
    N1908    N        0.31820    0.47717    0.96792    1.000
    N1909    N        0.31073    0.39474    0.95519    1.000
    Si1910   Si       0.33540    0.49467    0.93108    1.000
    N1911    N        0.30112    0.59151    0.04174    1.000
    Si1912   Si       0.30473    0.61133    0.08085    1.000
    N1913    N        0.33090    0.52220    0.10205    1.000
    Si1914   Si       0.33781    0.57452    0.02707    1.000
    N1915    N        0.32492    0.54580    0.99484    1.000
    Si1916   Si       0.31082    0.68538    0.07286    1.000
    N1917    N        0.30976    0.69765    0.11532    1.000
    N1918    N        0.29102    0.71022    0.04162    1.000
    N1919    N        0.28517    0.64962    0.07467    1.000
    Si1920   Si       0.29458    0.75304    0.05294    1.000
    Si1921   Si       0.30881    0.55022    0.20939    1.000
    N1922    N        0.31854    0.61263    0.16734    1.000
    N1923    N        0.29934    0.54730    0.16452    1.000
    Si1924   Si       0.33639    0.53280    0.14230    1.000
    N1925    N        0.32135    0.51064    0.22306    1.000
    Si1926   Si       0.28954    0.58818    0.14925    1.000
    N1927    N        0.34155    0.74831    0.19762    1.000
    N1928    N        0.32921    0.68002    0.17490    1.000
    N1929    N        0.29997    0.70062    0.23771    1.000
    N1930    N        0.28646    0.73187    0.17203    1.000
    N1931    N        0.30973    0.63795    0.23066    1.000
    Si1932   Si       0.31683    0.71478    0.19993    1.000
    Si1933   Si       0.30192    0.64685    0.18719    1.000
    N1934    N        0.31899    0.58406    0.27644    1.000
    N1935    N        0.29609    0.61345    0.33132    1.000
    Si1936   Si       0.30635    0.57501    0.31591    1.000
    Si1937   Si       0.28811    0.60488    0.25329    1.000
    Si1938   Si       0.34164    0.52573    0.36162    1.000
    N1939    N        0.33233    0.66886    0.29280    1.000
    Si1940   Si       0.32210    0.64966    0.33073    1.000
    N1941    N        0.29425    0.74959    0.35322    1.000
    N1942    N        0.28471    0.67834    0.33681    1.000
    Si1943   Si       0.33012    0.67126    0.24928    1.000
    N1944    N        0.31440    0.54847    0.45235    1.000
    N1945    N        0.33247    0.61088    0.43092    1.000
    N1946    N        0.30775    0.52382    0.38631    1.000
    Si1947   Si       0.31220    0.51162    0.42953    1.000
    Si1948   Si       0.29371    0.63164    0.43614    1.000
    N1949    N        0.28064    0.60983    0.47158    1.000
    N1950    N        0.32621    0.65569    0.37665    1.000
    Si1951   Si       0.32777    0.74544    0.48430    1.000
    N1952    N        0.30822    0.67117    0.44631    1.000
    Si1953   Si       0.28596    0.67202    0.38009    1.000
    Si1954   Si       0.31376    0.53736    0.59165    1.000
    N1955    N        0.29334    0.54200    0.52809    1.000
    Si1956   Si       0.33556    0.55418    0.52370    1.000
    N1957    N        0.31594    0.63057    0.59414    1.000
    N1958    N        0.33490    0.75984    0.58336    1.000
    N1959    N        0.29530    0.65726    0.52846    1.000
    N1960    N        0.30899    0.72442    0.52625    1.000
    Si1961   Si       0.30325    0.74070    0.60801    1.000
    Si1962   Si       0.32712    0.68371    0.52619    1.000
    Si1963   Si       0.28305    0.63949    0.56852    1.000
    Si1964   Si       0.33600    0.54146    0.73499    1.000
    Si1965   Si       0.29182    0.57479    0.68670    1.000
    N1966    N        0.29132    0.60405    0.71930    1.000
    N1967    N        0.32231    0.54688    0.69531    1.000
    Si1968   Si       0.32644    0.62328    0.63626    1.000
    N1969    N        0.30212    0.59045    0.64639    1.000
    Si1970   Si       0.28946    0.67885    0.66154    1.000
    N1971    N        0.32414    0.65362    0.66714    1.000
    Si1972   Si       0.30385    0.72012    0.72106    1.000
    N1973    N        0.30203    0.70288    0.62809    1.000
    Si1974   Si       0.30051    0.57754    0.85109    1.000
    N1975    N        0.33334    0.57376    0.76470    1.000
    Si1976   Si       0.31936    0.61163    0.75114    1.000
    N1977    N        0.28395    0.53814    0.86564    1.000
    N1978    N        0.34330    0.57324    0.83795    1.000
    N1979    N        0.30429    0.64214    0.77919    1.000
    Si1980   Si       0.32267    0.67996    0.76614    1.000
    N1981    N        0.29282    0.71086    0.76349    1.000
    Si1982   Si       0.30228    0.74176    0.86502    1.000
    Si1983   Si       0.28569    0.74099    0.79410    1.000
    N1984    N        0.32827    0.75324    0.80147    1.000
    N1985    N        0.28375    0.66037    0.85651    1.000
    N1986    N        0.32124    0.53647    0.92907    1.000
    N1987    N        0.32432    0.60657    0.96521    1.000
    N1988    N        0.29667    0.59723    0.88894    1.000
    Si1989   Si       0.33562    0.56565    0.95750    1.000
    Si1990   Si       0.28251    0.53221    0.90734    1.000
    N1991    N        0.29900    0.71135    0.96897    1.000
    Si1992   Si       0.29899    0.64068    0.89533    1.000
    N1993    N        0.33593    0.65601    0.90632    1.000
    N1994    N        0.30133    0.71880    0.90191    1.000
    Si1995   Si       0.34054    0.70069    0.89829    1.000
    Si1996   Si       0.31018    0.86363    0.09547    1.000
    N1997    N        0.29360    0.78517    0.02093    1.000
    N1998    N        0.29997    0.82617    0.07717    1.000
    Si1999   Si       0.28718    0.80424    0.11352    1.000
    N2000    N        0.33791    0.75618    0.06524    1.000
    Si2001   Si       0.32870    0.99413    0.06522    1.000
    N2002    N        0.32137    0.90954    0.02808    1.000
    N2003    N        0.33407    0.95475    0.08391    1.000
    N2004    N        0.28609    0.00203    0.06122    1.000
    Si2005   Si       0.33234    0.82941    0.22863    1.000
    Si2006   Si       0.30982    0.77360    0.17975    1.000
    N2007    N        0.31590    0.78487    0.13795    1.000
    N2008    N        0.30490    0.84638    0.13711    1.000
    N2009    N        0.34000    0.81066    0.18857    1.000
    N2010    N        0.29278    0.83481    0.24273    1.000
    Si2011   Si       0.31252    0.95334    0.12162    1.000
    Si2012   Si       0.29102    0.88351    0.15911    1.000
    N2013    N        0.29549    0.88591    0.20164    1.000
    N2014    N        0.31707    0.91607    0.14579    1.000
    Si2015   Si       0.33189    0.89968    0.22366    1.000
    N2016    N        0.34013    0.97565    0.15067    1.000
    Si2017   Si       0.30700    0.83946    0.33487    1.000
    Si2018   Si       0.29338    0.77620    0.31473    1.000
    N2019    N        0.28499    0.87773    0.32955    1.000
    N2020    N        0.33627    0.78046    0.31734    1.000
    Si2021   Si       0.33797    0.75408    0.35601    1.000
    Si2022   Si       0.31856    0.89234    0.30397    1.000
    N2023    N        0.30806    0.90034    0.26402    1.000
    N2024    N        0.33488    0.92031    0.33277    1.000
    N2025    N        0.28510    0.98564    0.34090    1.000
    N2026    N        0.28646    0.00474    0.27259    1.000
    N2027    N        0.31115    0.82433    0.37516    1.000
    N2028    N        0.29364    0.86044    0.45472    1.000
    N2029    N        0.31717    0.78873    0.47625    1.000
    Si2030   Si       0.32318    0.82992    0.46250    1.000
    Si2031   Si       0.32943    0.94757    0.48431    1.000
    N2032    N        0.29698    0.90107    0.39276    1.000
    N2033    N        0.30793    0.98385    0.46947    1.000
    N2034    N        0.32893    0.96274    0.38917    1.000
    Si2035   Si       0.29467    0.90240    0.43746    1.000
    Si2036   Si       0.29957    0.99310    0.38182    1.000
    N2037    N        0.33308    0.92070    0.45039    1.000
    Si2038   Si       0.33123    0.92137    0.37480    1.000
    Si2039   Si       0.30322    0.84602    0.58879    1.000
    N2040    N        0.32300    0.86532    0.55723    1.000
    N2041    N        0.32936    0.82338    0.61743    1.000
    N2042    N        0.30881    0.93276    0.51904    1.000
    Si2043   Si       0.30760    0.94138    0.60053    1.000
    N2044    N        0.30135    0.98310    0.59907    1.000
    Si2045   Si       0.33216    0.90716    0.54522    1.000
    N2046    N        0.33028    0.87102    0.67056    1.000
    Si2047   Si       0.32637    0.82909    0.66096    1.000
    N2048    N        0.28467    0.82165    0.67527    1.000
    N2049    N        0.30812    0.76080    0.70771    1.000
    N2050    N        0.28471    0.76508    0.63954    1.000
    Si2051   Si       0.27961    0.77901    0.67985    1.000
    N2052    N        0.30213    0.95283    0.71441    1.000
    N2053    N        0.31116    0.92986    0.64221    1.000
    Si2054   Si       0.32929    0.93009    0.74158    1.000
    Si2055   Si       0.29519    0.89191    0.65498    1.000
    Si2056   Si       0.28982    0.99159    0.69816    1.000
    N2057    N        0.33218    0.88615    0.74190    1.000
    N2058    N        0.31670    0.82013    0.77421    1.000
    Si2059   Si       0.33347    0.86025    0.77420    1.000
    N2060    N        0.31134    0.87552    0.81209    1.000
    N2061    N        0.30239    0.93294    0.77693    1.000
    Si2062   Si       0.31613    0.91671    0.81491    1.000
    Si2063   Si       0.29102    0.97962    0.82684    1.000
    N2064    N        0.33420    0.98800    0.81742    1.000
    N2065    N        0.28474    0.93648    0.83678    1.000
    N2066    N        0.30517    0.78246    0.87710    1.000
    N2067    N        0.29771    0.77844    0.94609    1.000
    Si2068   Si       0.30163    0.80634    0.91270    1.000
    Si2069   Si       0.31850    0.78752    0.98386    1.000
    N2070    N        0.33646    0.83280    0.91358    1.000
    N2071    N        0.33009    0.96569    0.92341    1.000
    N2072    N        0.29078    0.94559    0.97365    1.000
    Si2073   Si       0.32609    0.92171    0.98660    1.000
    Si2074   Si       0.29762    0.98050    0.94890    1.000
    N2075    N        0.33936    0.89627    0.95279    1.000
    N2076    N        0.32036    0.90716    0.88530    1.000
    Si2077   Si       0.34108    0.92388    0.91928    1.000
    N2078    N        0.37439    0.11624    0.07083    1.000
    N2079    N        0.35227    0.02284    0.09136    1.000
    Si2080   Si       0.39351    0.02398    0.10139    1.000
    Si2081   Si       0.39513    0.10638    0.10528    1.000
    Si2082   Si       0.39291    0.01480    0.03078    1.000
    N2083    N        0.38889    0.12456    0.99860    1.000
    Si2084   Si       0.37082    0.08547    0.99791    1.000
    N2085    N        0.39580    0.05357    0.01177    1.000
    N2086    N        0.38768    0.21759    0.08515    1.000
    N2087    N        0.37167    0.17684    0.03002    1.000
    Si2088   Si       0.38983    0.21504    0.04343    1.000
    Si2089   Si       0.39373    0.13987    0.04054    1.000
    Si2090   Si       0.34581    0.21940    0.10161    1.000
    N2091    N        0.37270    0.25037    0.02547    1.000
    N2092    N        0.38926    0.08061    0.19680    1.000
    Si2093   Si       0.37442    0.04672    0.22028    1.000
    N2094    N        0.37238    0.11977    0.13969    1.000
    Si2095   Si       0.35797    0.09127    0.17038    1.000
    N2096    N        0.34515    0.05299    0.15384    1.000
    N2097    N        0.37867    0.00693    0.19560    1.000
    Si2098   Si       0.38377    0.19709    0.21197    1.000
    Si2099   Si       0.36710    0.16300    0.14671    1.000
    N2100    N        0.35740    0.17164    0.18951    1.000
    N2101    N        0.36101    0.23216    0.22172    1.000
    N2102    N        0.38206    0.10175    0.35179    1.000
    N2103    N        0.39187    0.10735    0.27820    1.000
    N2104    N        0.39401    0.03911    0.25930    1.000
    N2105    N        0.34564    0.01333    0.31748    1.000
    Si2106   Si       0.34252    0.11994    0.35767    1.000
    Si2107   Si       0.36972    0.01098    0.28282    1.000
    N2108    N        0.34680    0.15877    0.37361    1.000
    Si2109   Si       0.35327    0.18223    0.33611    1.000
    N2110    N        0.37733    0.15954    0.30755    1.000
    N2111    N        0.37823    0.20908    0.35635    1.000
    Si2112   Si       0.37423    0.14473    0.26646    1.000
    N2113    N        0.39865    0.17331    0.24538    1.000
    N2114    N        0.38959    0.05839    0.40583    1.000
    Si2115   Si       0.34978    0.04558    0.41221    1.000
    N2116    N        0.36593    0.01952    0.49653    1.000
    Si2117   Si       0.34406    0.13991    0.48787    1.000
    N2118    N        0.35009    0.20412    0.42793    1.000
    Si2119   Si       0.37411    0.18435    0.39669    1.000
    N2120    N        0.38489    0.14904    0.49655    1.000
    N2121    N        0.38502    0.06630    0.54612    1.000
    Si2122   Si       0.35621    0.09757    0.54777    1.000
    N2123    N        0.38972    0.08709    0.61269    1.000
    Si2124   Si       0.38469    0.12957    0.60773    1.000
    N2125    N        0.37595    0.13259    0.56499    1.000
    Si2126   Si       0.35035    0.22040    0.57895    1.000
    N2127    N        0.38560    0.20458    0.59687    1.000
    N2128    N        0.35797    0.21471    0.53727    1.000
    Si2129   Si       0.38730    0.19003    0.51582    1.000
    Si2130   Si       0.35758    0.01117    0.69073    1.000
    Si2131   Si       0.37676    0.04897    0.62838    1.000
    N2132    N        0.35543    0.07955    0.73185    1.000
    N2133    N        0.37558    0.04576    0.67148    1.000
    Si2134   Si       0.38735    0.07389    0.70353    1.000
    N2135    N        0.39380    0.11446    0.68793    1.000
    Si2136   Si       0.36055    0.13900    0.67877    1.000
    N2137    N        0.35475    0.14445    0.63616    1.000
    N2138    N        0.36170    0.16884    0.71198    1.000
    N2139    N        0.38053    0.23263    0.69550    1.000
    Si2140   Si       0.39797    0.19230    0.70203    1.000
    Si2141   Si       0.38587    0.21591    0.63956    1.000
    N2142    N        0.37497    0.04351    0.84872    1.000
    Si2143   Si       0.36982    0.07109    0.77189    1.000
    N2144    N        0.37668    0.02877    0.78026    1.000
    Si2145   Si       0.37042    0.01240    0.81878    1.000
    N2146    N        0.38023    0.12537    0.83792    1.000
    Si2147   Si       0.35041    0.12808    0.80670    1.000
    Si2148   Si       0.34246    0.06275    0.87099    1.000
    N2149    N        0.34011    0.08743    0.79586    1.000
    Si2150   Si       0.39133    0.24936    0.82990    1.000
    N2151    N        0.36778    0.16055    0.78391    1.000
    Si2152   Si       0.36426    0.20200    0.79870    1.000
    N2153    N        0.36324    0.21724    0.83930    1.000
    Si2154   Si       0.34926    0.13386    0.86783    1.000
    Si2155   Si       0.34179    0.17173    0.74861    1.000
    N2156    N        0.39724    0.22858    0.79089    1.000
    N2157    N        0.36287    0.07466    0.95683    1.000
    Si2158   Si       0.37776    0.09087    0.92074    1.000
    N2159    N        0.34801    0.09888    0.89293    1.000
    N2160    N        0.39695    0.12862    0.93190    1.000
    Si2161   Si       0.35226    0.20823    0.88080    1.000
    Si2162   Si       0.36161    0.16168    0.99034    1.000
    N2163    N        0.37771    0.18678    0.95956    1.000
    Si2164   Si       0.38189    0.23001    0.94679    1.000
    Si2165   Si       0.39349    0.17058    0.91821    1.000
    N2166    N        0.38954    0.21796    0.90518    1.000
    N2167    N        0.35423    0.16777    0.89272    1.000
    N2168    N        0.34706    0.25639    0.94703    1.000
    N2169    N        0.36929    0.34326    0.07361    1.000
    Si2170   Si       0.36584    0.33202    0.11501    1.000
    N2171    N        0.38118    0.30560    0.99616    1.000
    N2172    N        0.37997    0.47982    0.06455    1.000
    Si2173   Si       0.36610    0.44407    0.08422    1.000
    Si2174   Si       0.38065    0.46823    0.02053    1.000
    N2175    N        0.35843    0.43391    0.99814    1.000
    N2176    N        0.39812    0.41455    0.07579    1.000
    Si2177   Si       0.39783    0.41032    0.99297    1.000
    N2178    N        0.38019    0.36726    0.13196    1.000
    N2179    N        0.39225    0.34468    0.21493    1.000
    Si2180   Si       0.37692    0.26875    0.14783    1.000
    Si2181   Si       0.35588    0.32259    0.20557    1.000
    N2182    N        0.34898    0.28925    0.17754    1.000
    N2183    N        0.36261    0.29510    0.24259    1.000
    N2184    N        0.39494    0.30453    0.13047    1.000
    Si2185   Si       0.38783    0.26170    0.23469    1.000
    Si2186   Si       0.38135    0.47743    0.14997    1.000
    Si2187   Si       0.36032    0.40593    0.14701    1.000
    N2188    N        0.34544    0.49590    0.16239    1.000
    Si2189   Si       0.37397    0.38414    0.22497    1.000
    N2190    N        0.36884    0.44275    0.12745    1.000
    N2191    N        0.37934    0.40525    0.18530    1.000
    Si2192   Si       0.38006    0.30148    0.33531    1.000
    N2193    N        0.35282    0.31806    0.30566    1.000
    N2194    N        0.36311    0.38932    0.31109    1.000
    Si2195   Si       0.37477    0.42293    0.28523    1.000
    N2196    N        0.37105    0.48827    0.25154    1.000
    Si2197   Si       0.37557    0.47287    0.36551    1.000
    N2198    N        0.36233    0.43169    0.36408    1.000
    N2199    N        0.39726    0.40881    0.25042    1.000
    N2200    N        0.35882    0.29408    0.37329    1.000
    N2201    N        0.34885    0.33606    0.42737    1.000
    Si2202   Si       0.35088    0.34897    0.46868    1.000
    Si2203   Si       0.37342    0.30366    0.41428    1.000
    N2204    N        0.37598    0.26806    0.44201    1.000
    N2205    N        0.38458    0.37367    0.47806    1.000
    N2206    N        0.35432    0.31300    0.49126    1.000
    Si2207   Si       0.34265    0.44253    0.44966    1.000
    Si2208   Si       0.36455    0.39836    0.39034    1.000
    N2209    N        0.34501    0.48809    0.45073    1.000
    N2210    N        0.36505    0.41237    0.43245    1.000
    N2211    N        0.36364    0.44446    0.48859    1.000
    N2212    N        0.36909    0.32088    0.56071    1.000
    Si2213   Si       0.38551    0.34747    0.59210    1.000
    Si2214   Si       0.38643    0.31335    0.52143    1.000
    N2215    N        0.35351    0.37619    0.60474    1.000
    N2216    N        0.35261    0.26338    0.58932    1.000
    Si2217   Si       0.35145    0.41283    0.57928    1.000
    Si2218   Si       0.37675    0.40744    0.50657    1.000
    N2219    N        0.38940    0.43091    0.58235    1.000
    N2220    N        0.34655    0.39984    0.53805    1.000
    N2221    N        0.39935    0.50552    0.56586    1.000
    Si2222   Si       0.34867    0.48475    0.49517    1.000
    N2223    N        0.38957    0.31926    0.62423    1.000
    Si2224   Si       0.37098    0.27932    0.62504    1.000
    Si2225   Si       0.35020    0.37608    0.69848    1.000
    N2226    N        0.38268    0.36436    0.72530    1.000
    N2227    N        0.36262    0.27807    0.73779    1.000
    Si2228   Si       0.39738    0.26861    0.71463    1.000
    N2229    N        0.34211    0.27596    0.65839    1.000
    Si2230   Si       0.39529    0.47023    0.66502    1.000
    N2231    N        0.35415    0.48235    0.67083    1.000
    Si2232   Si       0.37866    0.36352    0.76668    1.000
    Si2233   Si       0.35606    0.29043    0.78107    1.000
    N2234    N        0.36271    0.35568    0.84823    1.000
    N2235    N        0.37629    0.28827    0.81951    1.000
    N2236    N        0.35021    0.33362    0.77872    1.000
    Si2237   Si       0.39229    0.32877    0.82910    1.000
    N2238    N        0.37405    0.40465    0.78437    1.000
    Si2239   Si       0.37352    0.39501    0.86116    1.000
    N2240    N        0.37531    0.46917    0.76376    1.000
    N2241    N        0.34713    0.42553    0.84208    1.000
    N2242    N        0.38033    0.37074    0.96954    1.000
    Si2243   Si       0.34606    0.28696    0.97652    1.000
    N2244    N        0.34473    0.30064    0.88570    1.000
    Si2245   Si       0.39549    0.38382    0.93049    1.000
    N2246    N        0.34378    0.47649    0.89103    1.000
    Si2247   Si       0.38419    0.48999    0.89532    1.000
    N2248    N        0.36174    0.39145    0.90294    1.000
    N2249    N        0.37805    0.50000    0.93703    1.000
    N2250    N        0.36216    0.61108    0.01842    1.000
    N2251    N        0.36628    0.54935    0.04952    1.000
    Si2252   Si       0.34992    0.51286    0.06357    1.000
    N2253    N        0.34439    0.61803    0.09599    1.000
    N2254    N        0.39429    0.50741    0.00560    1.000
    Si2255   Si       0.37395    0.64613    0.09279    1.000
    N2256    N        0.35430    0.67148    0.06117    1.000
    Si2257   Si       0.38209    0.68358    0.02785    1.000
    N2258    N        0.39265    0.72599    0.02451    1.000
    Si2259   Si       0.36669    0.52654    0.22944    1.000
    N2260    N        0.34869    0.56947    0.21528    1.000
    N2261    N        0.36685    0.56088    0.15185    1.000
    Si2262   Si       0.35695    0.59471    0.17939    1.000
    N2263    N        0.39272    0.61525    0.19211    1.000
    N2264    N        0.39857    0.52348    0.20001    1.000
    Si2265   Si       0.34682    0.69413    0.13840    1.000
    N2266    N        0.38280    0.67260    0.12599    1.000
    N2267    N        0.36762    0.73200    0.12977    1.000
    N2268    N        0.36821    0.68648    0.23543    1.000
    Si2269   Si       0.39235    0.64595    0.22499    1.000
    Si2270   Si       0.37420    0.59079    0.34232    1.000
    N2271    N        0.38166    0.55405    0.26454    1.000
    Si2272   Si       0.35608    0.58815    0.25478    1.000
    N2273    N        0.37478    0.62544    0.25973    1.000
    N2274    N        0.36280    0.62885    0.32643    1.000
    N2275    N        0.34080    0.56280    0.33928    1.000
    N2276    N        0.36369    0.72306    0.34566    1.000
    Si2277   Si       0.37410    0.65226    0.29488    1.000
    N2278    N        0.39684    0.75196    0.29030    1.000
    Si2279   Si       0.40060    0.72069    0.32180    1.000
    N2280    N        0.37810    0.55560    0.43910    1.000
    N2281    N        0.38017    0.60264    0.38443    1.000
    Si2282   Si       0.37993    0.51219    0.43512    1.000
    Si2283   Si       0.34728    0.57889    0.45831    1.000
    Si2284   Si       0.35401    0.63338    0.40068    1.000
    N2285    N        0.36918    0.50864    0.39200    1.000
    N2286    N        0.37597    0.66537    0.42618    1.000
    Si2287   Si       0.37652    0.74872    0.42554    1.000
    Si2288   Si       0.34923    0.68456    0.45426    1.000
    N2289    N        0.34902    0.72636    0.45142    1.000
    Si2290   Si       0.38568    0.60601    0.52209    1.000
    N2291    N        0.36491    0.52245    0.50982    1.000
    Si2292   Si       0.38373    0.52183    0.60435    1.000
    Si2293   Si       0.35005    0.60210    0.58369    1.000
    N2294    N        0.37357    0.62712    0.55762    1.000
    N2295    N        0.35129    0.58811    0.49998    1.000
    N2296    N        0.34038    0.56441    0.56629    1.000
    N2297    N        0.35122    0.69401    0.56140    1.000
    Si2298   Si       0.38422    0.66633    0.57304    1.000
    N2299    N        0.36323    0.75099    0.51365    1.000
    Si2300   Si       0.34484    0.73568    0.55033    1.000
    Si2301   Si       0.40009    0.67467    0.50542    1.000
    N2302    N        0.35691    0.67686    0.49582    1.000
    N2303    N        0.34492    0.53056    0.62051    1.000
    Si2304   Si       0.39690    0.58168    0.64052    1.000
    N2305    N        0.36478    0.60699    0.62402    1.000
    N2306    N        0.37912    0.53102    0.73336    1.000
    N2307    N        0.38619    0.55032    0.66890    1.000
    Si2308   Si       0.34926    0.52611    0.66273    1.000
    N2309    N        0.35789    0.62979    0.73318    1.000
    N2310    N        0.34019    0.69271    0.72508    1.000
    Si2311   Si       0.35159    0.65743    0.70044    1.000
    Si2312   Si       0.37989    0.70846    0.70701    1.000
    N2313    N        0.36852    0.74164    0.68490    1.000
    N2314    N        0.39090    0.67096    0.68456    1.000
    Si2315   Si       0.36239    0.57061    0.79831    1.000
    N2316    N        0.38516    0.53448    0.79949    1.000
    N2317    N        0.38875    0.60376    0.78885    1.000
    Si2318   Si       0.39533    0.50901    0.76488    1.000
    Si2319   Si       0.37372    0.57077    0.86892    1.000
    Si2320   Si       0.39722    0.62672    0.75172    1.000
    N2321    N        0.39847    0.72240    0.81257    1.000
    N2322    N        0.35007    0.68701    0.79914    1.000
    Si2323   Si       0.35686    0.72609    0.81907    1.000
    Si2324   Si       0.39247    0.67900    0.80416    1.000
    N2325    N        0.34372    0.72182    0.85996    1.000
    N2326    N        0.38738    0.52636    0.87199    1.000
    N2327    N        0.38058    0.56136    0.95927    1.000
    N2328    N        0.37458    0.59778    0.90231    1.000
    N2329    N        0.38916    0.62992    0.95595    1.000
    Si2330   Si       0.40011    0.58985    0.93624    1.000
    N2331    N        0.35382    0.67724    0.99249    1.000
    Si2332   Si       0.35371    0.63473    0.98461    1.000
    Si2333   Si       0.37451    0.64091    0.91530    1.000
    N2334    N        0.36490    0.71049    0.93308    1.000
    N2335    N        0.34713    0.75595    0.98966    1.000
    Si2336   Si       0.34354    0.71488    0.97146    1.000
    N2337    N        0.36723    0.80326    0.10877    1.000
    N2338    N        0.38232    0.79918    0.03744    1.000
    Si2339   Si       0.38912    0.81923    0.00067    1.000
    Si2340   Si       0.34587    0.76565    0.10916    1.000
    Si2341   Si       0.36432    0.75903    0.02954    1.000
    N2342    N        0.34878    0.88321    0.09005    1.000
    Si2343   Si       0.39811    0.79681    0.07810    1.000
    Si2344   Si       0.38005    0.88289    0.12180    1.000
    Si2345   Si       0.34681    0.91878    0.06193    1.000
    N2346    N        0.38899    0.92529    0.05080    1.000
    Si2347   Si       0.39730    0.94357    0.01220    1.000
    N2348    N        0.35159    0.00159    0.02888    1.000
    Si2349   Si       0.36699    0.78016    0.21041    1.000
    N2350    N        0.36794    0.85866    0.15576    1.000
    N2351    N        0.35615    0.86576    0.22668    1.000
    Si2352   Si       0.38687    0.86068    0.19629    1.000
    Si2353   Si       0.34231    0.82389    0.14513    1.000
    Si2354   Si       0.36800    0.97233    0.22144    1.000
    N2355    N        0.34836    0.93516    0.20600    1.000
    Si2356   Si       0.35215    0.93535    0.16322    1.000
    N2357    N        0.38304    0.92421    0.13538    1.000
    N2358    N        0.34824    0.99420    0.25144    1.000
    Si2359   Si       0.36907    0.78802    0.29059    1.000
    Si2360   Si       0.38112    0.84938    0.32401    1.000
    N2361    N        0.37951    0.82907    0.36389    1.000
    N2362    N        0.35407    0.79668    0.24936    1.000
    N2363    N        0.39758    0.81809    0.30053    1.000
    N2364    N        0.34061    0.85497    0.31282    1.000
    Si2365   Si       0.38440    0.00207    0.33816    1.000
    N2366    N        0.39800    0.98173    0.30165    1.000
    N2367    N        0.39521    0.98378    0.37467    1.000
    N2368    N        0.35365    0.77279    0.39588    1.000
    Si2369   Si       0.34988    0.81736    0.39240    1.000
    N2370    N        0.35339    0.83401    0.43154    1.000
    Si2371   Si       0.38029    0.85019    0.46583    1.000
    N2372    N        0.39541    0.77382    0.45763    1.000
    N2373    N        0.35040    0.84279    0.49414    1.000
    N2374    N        0.37310    0.95457    0.49000    1.000
    Si2375   Si       0.36630    0.97796    0.40346    1.000
    N2376    N        0.36744    0.90411    0.39307    1.000
    N2377    N        0.35875    0.00829    0.43584    1.000
    N2378    N        0.39387    0.95690    0.43065    1.000
    Si2379   Si       0.38568    0.98923    0.46655    1.000
    Si2380   Si       0.37390    0.91928    0.43330    1.000
    Si2381   Si       0.35445    0.79580    0.59663    1.000
    N2382    N        0.37000    0.81672    0.56137    1.000
    Si2383   Si       0.36162    0.85121    0.53477    1.000
    N2384    N        0.38916    0.77935    0.61609    1.000
    N2385    N        0.36705    0.89629    0.52464    1.000
    Si2386   Si       0.38441    0.92870    0.59288    1.000
    N2387    N        0.34335    0.93052    0.58069    1.000
    Si2388   Si       0.39432    0.91626    0.49581    1.000
    N2389    N        0.35751    0.81173    0.68430    1.000
    N2390    N        0.39006    0.86405    0.71143    1.000
    Si2391   Si       0.35074    0.77529    0.70458    1.000
    N2392    N        0.36582    0.78034    0.74566    1.000
    N2393    N        0.35831    0.92496    0.70030    1.000
    N2394    N        0.33738    0.98523    0.66155    1.000
    Si2395   Si       0.35165    0.88276    0.70452    1.000
    Si2396   Si       0.39082    0.94428    0.72488    1.000
    N2397    N        0.38291    0.93747    0.63750    1.000
    Si2398   Si       0.34740    0.94388    0.66230    1.000
    N2399    N        0.38425    0.98861    0.71516    1.000
    N2400    N        0.36790    0.80476    0.81638    1.000
    N2401    N        0.37224    0.86134    0.85864    1.000
    Si2402   Si       0.38505    0.84304    0.82175    1.000
    N2403    N        0.37749    0.86218    0.78453    1.000
    Si2404   Si       0.34653    0.78796    0.78409    1.000
    N2405    N        0.35722    0.92328    0.82680    1.000
    Si2406   Si       0.36468    0.95620    0.80233    1.000
    N2407    N        0.36285    0.94806    0.75972    1.000
    Si2408   Si       0.36014    0.90171    0.86498    1.000
    N2409    N        0.39158    0.85399    0.93438    1.000
    Si2410   Si       0.37538    0.83866    0.89422    1.000
    Si2411   Si       0.34933    0.85551    0.94944    1.000
    N2412    N        0.34796    0.82414    0.98309    1.000
    N2413    N        0.37380    0.00674    0.95241    1.000
    Si2414   Si       0.35603    0.99876    0.91399    1.000
    N2415    N        0.35881    0.94981    0.98791    1.000
    Si2416   Si       0.34998    0.99220    0.98743    1.000
    N2417    N        0.37967    0.92142    0.89859    1.000
    N2418    N        0.38496    0.98850    0.88559    1.000
    N2419    N        0.41667    0.01738    0.06661    1.000
    N2420    N        0.43655    0.11460    0.11498    1.000
    N2421    N        0.40504    0.06312    0.11426    1.000
    Si2422   Si       0.43678    0.05584    0.99596    1.000
    N2423    N        0.43253    0.14983    0.05581    1.000
    N2424    N        0.42955    0.21112    0.02909    1.000
    Si2425   Si       0.41912    0.21677    0.11664    1.000
    N2426    N        0.45312    0.23374    0.09409    1.000
    Si2427   Si       0.45495    0.17264    0.02674    1.000
    Si2428   Si       0.45411    0.24236    0.05143    1.000
    Si2429   Si       0.44608    0.07377    0.12540    1.000
    Si2430   Si       0.43059    0.09538    0.19600    1.000
    N2431    N        0.44169    0.08642    0.23569    1.000
    N2432    N        0.45200    0.01330    0.19560    1.000
    N2433    N        0.45649    0.07200    0.16678    1.000
    Si2434   Si       0.43876    0.24747    0.18433    1.000
    N2435    N        0.43331    0.13768    0.18631    1.000
    N2436    N        0.42317    0.20881    0.19947    1.000
    Si2437   Si       0.43825    0.14809    0.14251    1.000
    N2438    N        0.40729    0.17552    0.13412    1.000
    N2439    N        0.41123    0.24393    0.14872    1.000
    Si2440   Si       0.44752    0.17335    0.20826    1.000
    Si2441   Si       0.44686    0.03748    0.32327    1.000
    Si2442   Si       0.41724    0.07403    0.26901    1.000
    N2443    N        0.45108    0.07117    0.35936    1.000
    N2444    N        0.40626    0.03863    0.33453    1.000
    Si2445   Si       0.40667    0.06992    0.36667    1.000
    N2446    N        0.45455    0.06826    0.29394    1.000
    N2447    N        0.43963    0.13128    0.32217    1.000
    Si2448   Si       0.39974    0.12417    0.31819    1.000
    N2449    N        0.41338    0.23984    0.26153    1.000
    N2450    N        0.43370    0.20474    0.31194    1.000
    Si2451   Si       0.42703    0.19870    0.26737    1.000
    Si2452   Si       0.41378    0.22886    0.34253    1.000
    Si2453   Si       0.41669    0.05166    0.44105    1.000
    Si2454   Si       0.41390    0.11437    0.48783    1.000
    N2455    N        0.42354    0.01016    0.45533    1.000
    N2456    N        0.45531    0.06989    0.43038    1.000
    N2457    N        0.40114    0.07470    0.47363    1.000
    N2458    N        0.40155    0.20724    0.47789    1.000
    Si2459   Si       0.45078    0.19580    0.39402    1.000
    Si2460   Si       0.42213    0.17463    0.45425    1.000
    N2461    N        0.44018    0.23577    0.37619    1.000
    N2462    N        0.41615    0.17898    0.41166    1.000
    N2463    N        0.43448    0.13105    0.45397    1.000
    Si2464   Si       0.40326    0.25198    0.47207    1.000
    N2465    N        0.44060    0.04889    0.51695    1.000
    N2466    N        0.43576    0.11764    0.52641    1.000
    Si2467   Si       0.41102    0.06215    0.58040    1.000
    N2468    N        0.45156    0.07451    0.57767    1.000
    N2469    N        0.40232    0.02474    0.60374    1.000
    Si2470   Si       0.39569    0.04860    0.50636    1.000
    N2471    N        0.42502    0.18534    0.54214    1.000
    Si2472   Si       0.42505    0.20912    0.58101    1.000
    N2473    N        0.42569    0.14775    0.59889    1.000
    Si2474   Si       0.41765    0.14361    0.55687    1.000
    N2475    N        0.43492    0.24953    0.57097    1.000
    N2476    N        0.45082    0.20503    0.61798    1.000
    Si2477   Si       0.45698    0.19721    0.51329    1.000
    N2478    N        0.41303    0.05010    0.72797    1.000
    N2479    N        0.45345    0.10716    0.72584    1.000
    Si2480   Si       0.40278    0.01143    0.74698    1.000
    Si2481   Si       0.45001    0.24629    0.62889    1.000
    N2482    N        0.43358    0.17214    0.71598    1.000
    Si2483   Si       0.43248    0.13291    0.69737    1.000
    N2484    N        0.40609    0.25446    0.63545    1.000
    N2485    N        0.45560    0.13798    0.66006    1.000
    N2486    N        0.43140    0.25303    0.73430    1.000
    N2487    N        0.40553    0.18417    0.66018    1.000
    Si2488   Si       0.43691    0.16682    0.63542    1.000
    N2489    N        0.43644    0.07930    0.84428    1.000
    Si2490   Si       0.41812    0.11012    0.82108    1.000
    N2491    N        0.41140    0.08995    0.78146    1.000
    N2492    N        0.44618    0.01490    0.86257    1.000
    Si2493   Si       0.41618    0.04756    0.86641    1.000
    Si2494   Si       0.43928    0.07539    0.75180    1.000
    Si2495   Si       0.43604    0.23419    0.77340    1.000
    N2496    N        0.44451    0.14656    0.82218    1.000
    N2497    N        0.41998    0.25520    0.86127    1.000
    N2498    N        0.45673    0.19577    0.77648    1.000
    N2499    N        0.43697    0.08777    0.96721    1.000
    Si2500   Si       0.44130    0.06076    0.93381    1.000
    N2501    N        0.44411    0.02739    0.96177    1.000
    N2502    N        0.40784    0.06333    0.90692    1.000
    Si2503   Si       0.42085    0.12877    0.96979    1.000
    N2504    N        0.41560    0.25158    0.96474    1.000
    N2505    N        0.46008    0.22638    0.91505    1.000
    Si2506   Si       0.42923    0.21626    0.88432    1.000
    N2507    N        0.42933    0.17229    0.89131    1.000
    N2508    N        0.45293    0.15329    0.98654    1.000
    N2509    N        0.43396    0.36752    0.08956    1.000
    N2510    N        0.44336    0.27603    0.02389    1.000
    Si2511   Si       0.40527    0.26857    0.00323    1.000
    N2512    N        0.41145    0.37613    0.02227    1.000
    Si2513   Si       0.39806    0.37304    0.06533    1.000
    N2514    N        0.45700    0.30105    0.09719    1.000
    N2515    N        0.41704    0.44322    0.01415    1.000
    Si2516   Si       0.42043    0.49573    0.08914    1.000
    N2517    N        0.44866    0.46318    0.09077    1.000
    Si2518   Si       0.43862    0.41857    0.09263    1.000
    Si2519   Si       0.45452    0.38482    0.02826    1.000
    Si2520   Si       0.45775    0.44885    0.99909    1.000
    N2521    N        0.44672    0.34461    0.15665    1.000
    N2522    N        0.41658    0.28014    0.20726    1.000
    Si2523   Si       0.42063    0.31864    0.22946    1.000
    Si2524   Si       0.42342    0.36898    0.13058    1.000
    Si2525   Si       0.43930    0.30404    0.13884    1.000
    N2526    N        0.45881    0.33954    0.22712    1.000
    Si2527   Si       0.41923    0.42155    0.17667    1.000
    Si2528   Si       0.42812    0.49140    0.20512    1.000
    N2529    N        0.44837    0.40604    0.20474    1.000
    N2530    N        0.43800    0.46796    0.24208    1.000
    N2531    N        0.43326    0.41224    0.13584    1.000
    N2532    N        0.41079    0.46292    0.17863    1.000
    Si2533   Si       0.43711    0.42344    0.24257    1.000
    N2534    N        0.41486    0.32714    0.34080    1.000
    N2535    N        0.42018    0.30752    0.27129    1.000
    Si2536   Si       0.42769    0.26770    0.28937    1.000
    Si2537   Si       0.44316    0.32253    0.30591    1.000
    N2538    N        0.39937    0.26541    0.32422    1.000
    N2539    N        0.43761    0.41047    0.34124    1.000
    Si2540   Si       0.43067    0.45178    0.33284    1.000
    Si2541   Si       0.40931    0.48465    0.27027    1.000
    N2542    N        0.41770    0.47476    0.36741    1.000
    N2543    N        0.40315    0.45444    0.29989    1.000
    Si2544   Si       0.42446    0.34291    0.37964    1.000
    N2545    N        0.41372    0.30884    0.40214    1.000
    Si2546   Si       0.43583    0.27296    0.40608    1.000
    N2547    N        0.43879    0.36242    0.45007    1.000
    Si2548   Si       0.43062    0.36931    0.49589    1.000
    N2549    N        0.40140    0.37635    0.39259    1.000
    N2550    N        0.43860    0.25502    0.44647    1.000
    Si2551   Si       0.40324    0.38838    0.43768    1.000
    N2552    N        0.42316    0.49969    0.43821    1.000
    Si2553   Si       0.43966    0.40239    0.38356    1.000
    N2554    N        0.43121    0.42206    0.42078    1.000
    Si2555   Si       0.45443    0.50452    0.46639    1.000
    N2556    N        0.42583    0.33205    0.52081    1.000
    N2557    N        0.42096    0.37114    0.58732    1.000
    Si2558   Si       0.44044    0.26984    0.53389    1.000
    Si2559   Si       0.45545    0.35696    0.60907    1.000
    N2560    N        0.40275    0.27196    0.51219    1.000
    N2561    N        0.44718    0.44568    0.57782    1.000
    Si2562   Si       0.42337    0.40885    0.56621    1.000
    N2563    N        0.41843    0.40342    0.52376    1.000
    Si2564   Si       0.41211    0.46805    0.58748    1.000
    N2565    N        0.45758    0.32024    0.63300    1.000
    Si2566   Si       0.41801    0.32148    0.65384    1.000
    Si2567   Si       0.41938    0.34536    0.71264    1.000
    N2568    N        0.42489    0.36195    0.67189    1.000
    N2569    N        0.41127    0.30466    0.69399    1.000
    N2570    N        0.44775    0.36150    0.73904    1.000
    N2571    N        0.41567    0.43254    0.67108    1.000
    N2572    N        0.40197    0.48816    0.62625    1.000
    Si2573   Si       0.43893    0.44826    0.70587    1.000
    Si2574   Si       0.44235    0.40030    0.66385    1.000
    N2575    N        0.43437    0.42974    0.74492    1.000
    N2576    N        0.42017    0.48779    0.69837    1.000
    N2577    N        0.42409    0.32642    0.85887    1.000
    N2578    N        0.41155    0.34619    0.79436    1.000
    Si2579   Si       0.45142    0.35620    0.78256    1.000
    Si2580   Si       0.44721    0.41748    0.83393    1.000
    N2581    N        0.42623    0.44973    0.81083    1.000
    N2582    N        0.41690    0.39772    0.85603    1.000
    Si2583   Si       0.44913    0.48531    0.80436    1.000
    Si2584   Si       0.40287    0.43744    0.77478    1.000
    N2585    N        0.43901    0.50534    0.76668    1.000
    Si2586   Si       0.44131    0.28989    0.87487    1.000
    Si2587   Si       0.43602    0.36497    0.87561    1.000
    N2588    N        0.44723    0.29538    0.91667    1.000
    N2589    N        0.44150    0.32725    0.97985    1.000
    N2590    N        0.42726    0.35974    0.91775    1.000
    Si2591   Si       0.44954    0.25923    0.94110    1.000
    Si2592   Si       0.45530    0.33173    0.93865    1.000
    Si2593   Si       0.40211    0.34302    0.99324    1.000
    Si2594   Si       0.43820    0.44732    0.93175    1.000
    N2595    N        0.45397    0.47301    0.96367    1.000
    N2596    N        0.40763    0.42129    0.94873    1.000
    Si2597   Si       0.45571    0.48147    0.87659    1.000
    N2598    N        0.42048    0.46838    0.89735    1.000
    N2599    N        0.42159    0.57756    0.02330    1.000
    N2600    N        0.43436    0.52534    0.06208    1.000
    Si2601   Si       0.44629    0.62099    0.09926    1.000
    N2602    N        0.40879    0.62273    0.07916    1.000
    Si2603   Si       0.40543    0.53888    0.03451    1.000
    Si2604   Si       0.40224    0.61377    0.03636    1.000
    Si2605   Si       0.45473    0.57551    0.99171    1.000
    N2606    N        0.41761    0.69452    0.07248    1.000
    Si2607   Si       0.42791    0.73246    0.04942    1.000
    Si2608   Si       0.44479    0.66918    0.04687    1.000
    N2609    N        0.41318    0.65198    0.01897    1.000
    N2610    N        0.40773    0.75451    0.08311    1.000
    Si2611   Si       0.40144    0.71747    0.10734    1.000
    N2612    N        0.43918    0.56573    0.16552    1.000
    Si2613   Si       0.43317    0.60838    0.17137    1.000
    Si2614   Si       0.40513    0.53944    0.15923    1.000
    N2615    N        0.40521    0.50704    0.12864    1.000
    N2616    N        0.40055    0.75383    0.21891    1.000
    N2617    N        0.41352    0.67917    0.19324    1.000
    N2618    N        0.43889    0.63597    0.13812    1.000
    Si2619   Si       0.42082    0.67325    0.14938    1.000
    N2620    N        0.43520    0.70992    0.13492    1.000
    Si2621   Si       0.45169    0.66475    0.20962    1.000
    Si2622   Si       0.40163    0.71127    0.22112    1.000
    Si2623   Si       0.41762    0.55742    0.28613    1.000
    Si2624   Si       0.44238    0.56812    0.35188    1.000
    N2625    N        0.44647    0.58051    0.26370    1.000
    N2626    N        0.40995    0.57397    0.32514    1.000
    N2627    N        0.43126    0.51676    0.28707    1.000
    Si2628   Si       0.45757    0.62100    0.26310    1.000
    N2629    N        0.45797    0.60544    0.36304    1.000
    Si2630   Si       0.44226    0.67717    0.28281    1.000
    N2631    N        0.43507    0.72510    0.34736    1.000
    N2632    N        0.43694    0.71518    0.24883    1.000
    N2633    N        0.40381    0.68240    0.30336    1.000
    N2634    N        0.45581    0.63867    0.30169    1.000
    N2635    N        0.43266    0.65171    0.24594    1.000
    Si2636   Si       0.40331    0.57636    0.41099    1.000
    N2637    N        0.43064    0.60538    0.42984    1.000
    Si2638   Si       0.43891    0.62491    0.46642    1.000
    N2639    N        0.42557    0.54888    0.38646    1.000
    Si2640   Si       0.45480    0.62704    0.40147    1.000
    Si2641   Si       0.43276    0.50531    0.39529    1.000
    N2642    N        0.40770    0.72371    0.41249    1.000
    N2643    N        0.41870    0.71218    0.49163    1.000
    Si2644   Si       0.43553    0.74541    0.38731    1.000
    Si2645   Si       0.45663    0.69540    0.47754    1.000
    N2646    N        0.43813    0.66497    0.38324    1.000
    N2647    N        0.44223    0.66646    0.44966    1.000
    Si2648   Si       0.41447    0.68143    0.41722    1.000
    Si2649   Si       0.43599    0.57008    0.57652    1.000
    N2650    N        0.40881    0.57203    0.54146    1.000
    N2651    N        0.44137    0.51818    0.50630    1.000
    N2652    N        0.40742    0.55746    0.60755    1.000
    Si2653   Si       0.40559    0.52785    0.52925    1.000
    N2654    N        0.40762    0.63251    0.49449    1.000
    N2655    N        0.45599    0.60231    0.59983    1.000
    N2656    N        0.40472    0.67164    0.61124    1.000
    N2657    N        0.41470    0.68205    0.54555    1.000
    Si2658   Si       0.44833    0.68555    0.61186    1.000
    Si2659   Si       0.40301    0.75398    0.49626    1.000
    N2660    N        0.44849    0.54875    0.70584    1.000
    N2661    N        0.42348    0.60951    0.66301    1.000
    Si2662   Si       0.40990    0.53208    0.69951    1.000
    N2663    N        0.43516    0.61098    0.73356    1.000
    Si2664   Si       0.44695    0.59413    0.69490    1.000
    Si2665   Si       0.41235    0.65113    0.65174    1.000
    N2666    N        0.45365    0.67014    0.65214    1.000
    N2667    N        0.40868    0.72749    0.73341    1.000
    Si2668   Si       0.41748    0.61124    0.82111    1.000
    N2669    N        0.41158    0.57707    0.84692    1.000
    Si2670   Si       0.41009    0.53345    0.83722    1.000
    N2671    N        0.45379    0.60950    0.79908    1.000
    N2672    N        0.44350    0.50574    0.84260    1.000
    N2673    N        0.46068    0.71536    0.78252    1.000
    Si2674   Si       0.43591    0.74603    0.80388    1.000
    N2675    N        0.40664    0.65200    0.83397    1.000
    N2676    N        0.40930    0.66792    0.76432    1.000
    Si2677   Si       0.43626    0.69806    0.75114    1.000
    Si2678   Si       0.43278    0.65848    0.86748    1.000
    N2679    N        0.45716    0.69467    0.86379    1.000
    Si2680   Si       0.40144    0.52318    0.96509    1.000
    N2681    N        0.45536    0.61616    0.97922    1.000
    N2682    N        0.44374    0.53976    0.97010    1.000
    N2683    N        0.43897    0.58914    0.91755    1.000
    N2684    N        0.42203    0.73573    0.90664    1.000
    Si2685   Si       0.44997    0.73561    0.87576    1.000
    N2686    N        0.40575    0.66468    0.90010    1.000
    N2687    N        0.42875    0.68594    0.96138    1.000
    Si2688   Si       0.40825    0.70098    0.92489    1.000
    Si2689   Si       0.42215    0.64526    0.97783    1.000
    N2690    N        0.43353    0.81329    0.09317    1.000
    Si2691   Si       0.44894    0.84892    0.10998    1.000
    N2692    N        0.41598    0.85159    0.00864    1.000
    N2693    N        0.44820    0.76521    0.02791    1.000
    N2694    N        0.41776    0.87878    0.10195    1.000
    Si2695   Si       0.44312    0.88316    0.00777    1.000
    Si2696   Si       0.42434    0.91074    0.07228    1.000
    N2697    N        0.43844    0.94486    0.09668    1.000
    N2698    N        0.41050    0.98439    0.00786    1.000
    N2699    N        0.45623    0.89696    0.04771    1.000
    N2700    N        0.41357    0.82815    0.20105    1.000
    Si2701   Si       0.45428    0.83862    0.19307    1.000
    Si2702   Si       0.41347    0.95380    0.13178    1.000
    N2703    N        0.41160    0.89551    0.20048    1.000
    N2704    N        0.40761    0.99866    0.13268    1.000
    Si2705   Si       0.41487    0.99875    0.17546    1.000
    N2706    N        0.40634    0.95868    0.23539    1.000
    Si2707   Si       0.42980    0.93209    0.20795    1.000
    N2708    N        0.42712    0.95677    0.17170    1.000
    Si2709   Si       0.44072    0.81902    0.29792    1.000
    N2710    N        0.44947    0.78916    0.26414    1.000
    N2711    N        0.45112    0.81394    0.34178    1.000
    N2712    N        0.44823    0.85981    0.28628    1.000
    Si2713   Si       0.42178    0.75625    0.25656    1.000
    N2714    N        0.40546    0.88273    0.33413    1.000
    Si2715   Si       0.43930    0.89469    0.30945    1.000
    N2716    N        0.44070    0.92795    0.28362    1.000
    Si2717   Si       0.42382    0.96583    0.27281    1.000
    Si2718   Si       0.42121    0.81906    0.37360    1.000
    N2719    N        0.42103    0.83600    0.46188    1.000
    N2720    N        0.42404    0.85562    0.39901    1.000
    N2721    N        0.43065    0.78577    0.40014    1.000
    Si2722   Si       0.42707    0.79668    0.44168    1.000
    Si2723   Si       0.43419    0.86998    0.43947    1.000
    N2724    N        0.45898    0.79038    0.47007    1.000
    Si2725   Si       0.43001    0.95977    0.40662    1.000
    Si2726   Si       0.40506    0.88825    0.37849    1.000
    N2727    N        0.43268    0.91822    0.39042    1.000
    N2728    N        0.39899    0.89207    0.45934    1.000
    N2729    N        0.42502    0.78042    0.52501    1.000
    N2730    N        0.43227    0.82851    0.59008    1.000
    N2731    N        0.41055    0.84757    0.52752    1.000
    Si2732   Si       0.41058    0.80951    0.55490    1.000
    Si2733   Si       0.43916    0.82276    0.49855    1.000
    Si2734   Si       0.42476    0.86664    0.61442    1.000
    Si2735   Si       0.42651    0.88033    0.55002    1.000
    N2736    N        0.41171    0.95773    0.57506    1.000
    N2737    N        0.42904    0.91532    0.52142    1.000
    Si2738   Si       0.44090    0.95252    0.54122    1.000
    Si2739   Si       0.42889    0.98971    0.59949    1.000
    N2740    N        0.45174    0.98049    0.51042    1.000
    N2741    N        0.40117    0.88889    0.58661    1.000
    Si2742   Si       0.42206    0.80412    0.62472    1.000
    N2743    N        0.41960    0.79494    0.70398    1.000
    N2744    N        0.40740    0.84095    0.64541    1.000
    Si2745   Si       0.40858    0.77071    0.73956    1.000
    Si2746   Si       0.39584    0.83009    0.68628    1.000
    N2747    N        0.42618    0.93712    0.69344    1.000
    Si2748   Si       0.42446    0.93540    0.65002    1.000
    N2749    N        0.44423    0.97378    0.63716    1.000
    N2750    N        0.44590    0.89933    0.63690    1.000
    Si2751   Si       0.45249    0.91625    0.72043    1.000
    N2752    N        0.42859    0.83363    0.82634    1.000
    N2753    N        0.42992    0.77946    0.77641    1.000
    Si2754   Si       0.44386    0.81938    0.78816    1.000
    Si2755   Si       0.43478    0.80294    0.85878    1.000
    N2756    N        0.44266    0.84831    0.75641    1.000
    N2757    N        0.44418    0.76268    0.84248    1.000
    Si2758   Si       0.40576    0.87256    0.75165    1.000
    Si2759   Si       0.43778    0.97729    0.84006    1.000
    Si2760   Si       0.44598    0.94843    0.77265    1.000
    N2761    N        0.43781    0.98772    0.75496    1.000
    N2762    N        0.41959    0.91619    0.75051    1.000
    N2763    N        0.39854    0.97936    0.81886    1.000
    N2764    N        0.41194    0.79653    0.96986    1.000
    Si2765   Si       0.41775    0.81938    0.93416    1.000
    N2766    N        0.40671    0.80901    0.89124    1.000
    Si2767   Si       0.44829    0.77843    0.98445    1.000
    N2768    N        0.45782    0.83088    0.93478    1.000
    N2769    N        0.44009    0.94894    0.87307    1.000
    N2770    N        0.42795    0.92179    0.99100    1.000
    Si2771   Si       0.41528    0.99624    0.96393    1.000
    N2772    N        0.42094    0.96320    0.93872    1.000
    Si2773   Si       0.40630    0.95422    0.89954    1.000
    Si2774   Si       0.45078    0.94129    0.96067    1.000
    N2775    N        0.49234    0.11116    0.07204    1.000
    Si2776   Si       0.50192    0.07273    0.01487    1.000
    N2777    N        0.47236    0.05245    0.09771    1.000
    Si2778   Si       0.50866    0.07200    0.08240    1.000
    N2779    N        0.50479    0.11454    0.00699    1.000
    N2780    N        0.46434    0.05542    0.02939    1.000
    Si2781   Si       0.45787    0.03038    0.06329    1.000
    Si2782   Si       0.51693    0.13482    0.04318    1.000
    N2783    N        0.49112    0.16936    0.05127    1.000
    N2784    N        0.49365    0.23207    0.03491    1.000
    Si2785   Si       0.46515    0.14141    0.08294    1.000
    N2786    N        0.47094    0.16480    0.12079    1.000
    N2787    N        0.49923    0.05564    0.22844    1.000
    Si2788   Si       0.48366    0.04542    0.18928    1.000
    N2789    N        0.51750    0.03300    0.16382    1.000
    Si2790   Si       0.49470    0.21920    0.23764    1.000
    Si2791   Si       0.50144    0.18575    0.14640    1.000
    N2792    N        0.48757    0.17536    0.18746    1.000
    Si2793   Si       0.50251    0.25609    0.17289    1.000
    N2794    N        0.50901    0.22744    0.13773    1.000
    N2795    N        0.47823    0.24421    0.20645    1.000
    N2796    N        0.49728    0.11329    0.27169    1.000
    N2797    N        0.50161    0.11628    0.33589    1.000
    Si2798   Si       0.47905    0.07825    0.25745    1.000
    N2799    N        0.47988    0.01196    0.32783    1.000
    Si2800   Si       0.46545    0.09813    0.32524    1.000
    N2801    N        0.49458    0.17513    0.30706    1.000
    N2802    N        0.50587    0.23932    0.27677    1.000
    N2803    N        0.50318    0.23968    0.34260    1.000
    Si2804   Si       0.51500    0.21303    0.31083    1.000
    N2805    N        0.47242    0.16988    0.36753    1.000
    Si2806   Si       0.51358    0.13753    0.29997    1.000
    Si2807   Si       0.45553    0.16983    0.32634    1.000
    N2808    N        0.46487    0.18929    0.24628    1.000
    N2809    N        0.49087    0.11119    0.40128    1.000
    N2810    N        0.49910    0.03472    0.39773    1.000
    Si2811   Si       0.47742    0.07101    0.39273    1.000
    Si2812   Si       0.47001    0.11085    0.44080    1.000
    N2813    N        0.49751    0.12432    0.47102    1.000
    N2814    N        0.51031    0.24596    0.47213    1.000
    Si2815   Si       0.47372    0.23061    0.45582    1.000
    N2816    N        0.46285    0.18839    0.46895    1.000
    Si2817   Si       0.49944    0.16550    0.48064    1.000
    Si2818   Si       0.48399    0.24370    0.37852    1.000
    Si2819   Si       0.50580    0.14084    0.37287    1.000
    N2820    N        0.48609    0.21723    0.41393    1.000
    N2821    N        0.50265    0.08447    0.52851    1.000
    Si2822   Si       0.48447    0.07556    0.60558    1.000
    N2823    N        0.50898    0.01629    0.53121    1.000
    Si2824   Si       0.46414    0.01656    0.53276    1.000
    N2825    N        0.50578    0.11462    0.61496    1.000
    Si2826   Si       0.45963    0.08393    0.53530    1.000
    N2827    N        0.51745    0.04873    0.59373    1.000
    N2828    N        0.49585    0.17895    0.52125    1.000
    N2829    N        0.51652    0.24040    0.54663    1.000
    Si2830   Si       0.49866    0.25784    0.51300    1.000
    N2831    N        0.52140    0.17777    0.58701    1.000
    N2832    N        0.45889    0.23954    0.50835    1.000
    N2833    N        0.47924    0.06900    0.64889    1.000
    Si2834   Si       0.49653    0.03698    0.67224    1.000
    Si2835   Si       0.49615    0.11619    0.73033    1.000
    Si2836   Si       0.48820    0.11194    0.65563    1.000
    N2837    N        0.51212    0.11560    0.69004    1.000
    Si2838   Si       0.46912    0.18555    0.73669    1.000
    N2839    N        0.48736    0.22040    0.71755    1.000
    Si2840   Si       0.50359    0.06985    0.77999    1.000
    N2841    N        0.50239    0.05608    0.84589    1.000
    N2842    N        0.48363    0.10308    0.80011    1.000
    Si2843   Si       0.47927    0.09080    0.84275    1.000
    N2844    N        0.47313    0.04699    0.75940    1.000
    N2845    N        0.48334    0.12303    0.86926    1.000
    Si2846   Si       0.47593    0.15134    0.79168    1.000
    Si2847   Si       0.48070    0.24399    0.83400    1.000
    N2848    N        0.49703    0.15521    0.75075    1.000
    Si2849   Si       0.46069    0.16344    0.85979    1.000
    N2850    N        0.45932    0.20780    0.84895    1.000
    Si2851   Si       0.48504    0.02976    0.87664    1.000
    Si2852   Si       0.48665    0.01415    0.96633    1.000
    N2853    N        0.50543    0.11883    0.93823    1.000
    N2854    N        0.50310    0.05420    0.97587    1.000
    N2855    N        0.47655    0.05687    0.90989    1.000
    Si2856   Si       0.50588    0.07605    0.93797    1.000
    N2857    N        0.50639    0.17820    0.88742    1.000
    Si2858   Si       0.51394    0.13455    0.89778    1.000
    Si2859   Si       0.49366    0.14255    0.97214    1.000
    N2860    N        0.50626    0.18418    0.95823    1.000
    Si2861   Si       0.49857    0.20649    0.91995    1.000
    N2862    N        0.50286    0.34455    0.10540    1.000
    N2863    N        0.50673    0.30044    0.01149    1.000
    Si2864   Si       0.46746    0.34118    0.08310    1.000
    Si2865   Si       0.46575    0.31238    0.01168    1.000
    N2866    N        0.46953    0.34557    0.04010    1.000
    Si2867   Si       0.48054    0.26412    0.11091    1.000
    N2868    N        0.51933    0.27396    0.09572    1.000
    Si2869   Si       0.50393    0.25783    0.00125    1.000
    N2870    N        0.48568    0.46789    0.02466    1.000
    Si2871   Si       0.48321    0.45276    0.06459    1.000
    N2872    N        0.46703    0.41277    0.05812    1.000
    Si2873   Si       0.46608    0.36692    0.19016    1.000
    N2874    N        0.50841    0.36135    0.17670    1.000
    N2875    N        0.46757    0.27396    0.15176    1.000
    N2876    N        0.51451    0.37880    0.24024    1.000
    N2877    N        0.50553    0.40917    0.12614    1.000
    N2878    N        0.50726    0.45232    0.22819    1.000
    Si2879   Si       0.47949    0.48332    0.23790    1.000
    Si2880   Si       0.50394    0.28009    0.29254    1.000
    Si2881   Si       0.48748    0.34852    0.25732    1.000
    N2882    N        0.51108    0.31168    0.26350    1.000
    N2883    N        0.46371    0.28401    0.30626    1.000
    Si2884   Si       0.50506    0.37197    0.36720    1.000
    N2885    N        0.46973    0.35506    0.29671    1.000
    N2886    N        0.51713    0.33122    0.35543    1.000
    N2887    N        0.50360    0.39888    0.33373    1.000
    Si2888   Si       0.50567    0.41899    0.25523    1.000
    N2889    N        0.46847    0.47197    0.32792    1.000
    N2890    N        0.46763    0.41635    0.27447    1.000
    Si2891   Si       0.46535    0.39339    0.31334    1.000
    Si2892   Si       0.49058    0.46727    0.36547    1.000
    Si2893   Si       0.47658    0.36130    0.43032    1.000
    N2894    N        0.47755    0.28257    0.39588    1.000
    N2895    N        0.50921    0.33428    0.42520    1.000
    N2896    N        0.46503    0.36755    0.38600    1.000
    Si2897   Si       0.51468    0.30577    0.39056    1.000
    N2898    N        0.49513    0.39949    0.44626    1.000
    N2899    N        0.48803    0.43516    0.39416    1.000
    Si2900   Si       0.50762    0.38778    0.48657    1.000
    N2901    N        0.47390    0.46484    0.46712    1.000
    Si2902   Si       0.46839    0.43435    0.43654    1.000
    N2903    N        0.47705    0.49975    0.39004    1.000
    N2904    N        0.48077    0.35013    0.57140    1.000
    N2905    N        0.47714    0.29226    0.53582    1.000
    Si2906   Si       0.50043    0.27330    0.57080    1.000
    N2907    N        0.48729    0.26501    0.60973    1.000
    Si2908   Si       0.46569    0.33375    0.53432    1.000
    N2909    N        0.47579    0.36553    0.50323    1.000
    N2910    N        0.51122    0.42195    0.51232    1.000
    Si2911   Si       0.48822    0.46395    0.57478    1.000
    N2912    N        0.49187    0.48343    0.53557    1.000
    N2913    N        0.50158    0.49273    0.60212    1.000
    N2914    N        0.51025    0.42628    0.58042    1.000
    Si2915   Si       0.50777    0.40333    0.61571    1.000
    Si2916   Si       0.50267    0.46197    0.49926    1.000
    N2917    N        0.49094    0.29106    0.73364    1.000
    Si2918   Si       0.48950    0.29260    0.64416    1.000
    N2919    N        0.46797    0.26272    0.66864    1.000
    Si2920   Si       0.46876    0.25935    0.71335    1.000
    N2921    N        0.52379    0.30926    0.66758    1.000
    N2922    N        0.51809    0.43457    0.64295    1.000
    N2923    N        0.47097    0.41625    0.69579    1.000
    Si2924   Si       0.51309    0.41910    0.68372    1.000
    N2925    N        0.50352    0.50162    0.73364    1.000
    N2926    N        0.46987    0.39098    0.63123    1.000
    Si2927   Si       0.46641    0.40061    0.73733    1.000
    N2928    N        0.48331    0.32950    0.79667    1.000
    Si2929   Si       0.49096    0.29097    0.77853    1.000
    Si2930   Si       0.49304    0.36335    0.83018    1.000
    N2931    N        0.48134    0.27993    0.86013    1.000
    N2932    N        0.46560    0.25878    0.79561    1.000
    N2933    N        0.47768    0.37378    0.86878    1.000
    N2934    N        0.48978    0.47131    0.80032    1.000
    N2935    N        0.47620    0.44188    0.85820    1.000
    Si2936   Si       0.51055    0.45920    0.83754    1.000
    N2937    N        0.46525    0.38968    0.80665    1.000
    N2938    N        0.50618    0.39082    0.74978    1.000
    N2939    N        0.49423    0.35488    0.94158    1.000
    N2940    N        0.48443    0.26344    0.96285    1.000
    Si2941   Si       0.49073    0.41139    0.88787    1.000
    N2942    N        0.47348    0.42449    0.92379    1.000
    Si2943   Si       0.48724    0.39755    0.95450    1.000
    N2944    N        0.46426    0.40531    0.99003    1.000
    N2945    N        0.47729    0.50387    0.90947    1.000
    N2946    N        0.48529    0.56798    0.02204    1.000
    N2947    N        0.50514    0.53690    0.08066    1.000
    Si2948   Si       0.46811    0.55446    0.05985    1.000
    N2949    N        0.46497    0.58295    0.09454    1.000
    Si2950   Si       0.49856    0.56212    0.11530    1.000
    N2951    N        0.47275    0.73947    0.08357    1.000
    Si2952   Si       0.49485    0.72079    0.05106    1.000
    N2953    N        0.47061    0.65041    0.07355    1.000
    N2954    N        0.46342    0.70391    0.02616    1.000
    Si2955   Si       0.51382    0.65008    0.07630    1.000
    N2956    N        0.51556    0.74879    0.02537    1.000
    N2957    N        0.50075    0.53374    0.14861    1.000
    Si2958   Si       0.47541    0.54413    0.18147    1.000
    N2959    N        0.50485    0.57334    0.20239    1.000
    Si2960   Si       0.50284    0.61619    0.20852    1.000
    N2961    N        0.46780    0.50992    0.20513    1.000
    N2962    N        0.46151    0.62552    0.19809    1.000
    Si2963   Si       0.47171    0.72926    0.12559    1.000
    N2964    N        0.50445    0.70661    0.14394    1.000
    N2965    N        0.48492    0.69164    0.21224    1.000
    Si2966   Si       0.51648    0.68407    0.18137    1.000
    N2967    N        0.50602    0.75060    0.24433    1.000
    N2968    N        0.47258    0.54467    0.33205    1.000
    Si2969   Si       0.50856    0.56472    0.33857    1.000
    N2970    N        0.50006    0.62528    0.25071    1.000
    N2971    N        0.50963    0.60649    0.32034    1.000
    Si2972   Si       0.47037    0.50897    0.30596    1.000
    Si2973   Si       0.47973    0.63262    0.33782    1.000
    N2974    N        0.49851    0.50172    0.27280    1.000
    N2975    N        0.48303    0.69805    0.28598    1.000
    N2976    N        0.49332    0.67351    0.34623    1.000
    Si2977   Si       0.51516    0.69134    0.31360    1.000
    Si2978   Si       0.48059    0.71690    0.24697    1.000
    Si2979   Si       0.46170    0.69438    0.36442    1.000
    Si2980   Si       0.49607    0.56500    0.47345    1.000
    N2981    N        0.47444    0.60266    0.48175    1.000
    N2982    N        0.49966    0.63053    0.40630    1.000
    Si2983   Si       0.50621    0.52630    0.40895    1.000
    N2984    N        0.48318    0.53184    0.44949    1.000
    N2985    N        0.48544    0.72409    0.47302    1.000
    Si2986   Si       0.50076    0.72322    0.43314    1.000
    N2987    N        0.47398    0.72288    0.39916    1.000
    Si2988   Si       0.49897    0.53654    0.60068    1.000
    N2989    N        0.50472    0.61318    0.54764    1.000
    Si2990   Si       0.47666    0.52323    0.53071    1.000
    N2991    N        0.46861    0.54261    0.56892    1.000
    N2992    N        0.51053    0.54530    0.51303    1.000
    Si2993   Si       0.48594    0.62787    0.58255    1.000
    Si2994   Si       0.49882    0.63012    0.50797    1.000
    N2995    N        0.51024    0.62761    0.61782    1.000
    N2996    N        0.47424    0.72982    0.53968    1.000
    N2997    N        0.47505    0.66778    0.50856    1.000
    Si2998   Si       0.49379    0.74480    0.57964    1.000
    N2999    N        0.47146    0.66798    0.57994    1.000
    Si3000   Si       0.50826    0.72907    0.51095    1.000
    N3001    N        0.46407    0.72866    0.61026    1.000
    Si3002   Si       0.45929    0.68929    0.54340    1.000
    N3003    N        0.48388    0.61474    0.68453    1.000
    N3004    N        0.49885    0.56046    0.63918    1.000
    Si3005   Si       0.48199    0.60181    0.63927    1.000
    Si3006   Si       0.46857    0.52749    0.73932    1.000
    Si3007   Si       0.48229    0.75170    0.64074    1.000
    Si3008   Si       0.49481    0.71627    0.70531    1.000
    N3009    N        0.46249    0.68664    0.71943    1.000
    Si3010   Si       0.47586    0.65968    0.68627    1.000
    N3011    N        0.47452    0.74579    0.68287    1.000
    N3012    N        0.51288    0.68467    0.68408    1.000
    N3013    N        0.48499    0.56023    0.76304    1.000
    Si3014   Si       0.48619    0.62115    0.82559    1.000
    Si3015   Si       0.46844    0.60052    0.76154    1.000
    N3016    N        0.46555    0.62804    0.86561    1.000
    N3017    N        0.50667    0.61878    0.74916    1.000
    N3018    N        0.51691    0.59176    0.81697    1.000
    Si3019   Si       0.50015    0.70150    0.79368    1.000
    Si3020   Si       0.49692    0.68632    0.85005    1.000
    N3021    N        0.50292    0.66030    0.81423    1.000
    N3022    N        0.50702    0.72303    0.82955    1.000
    Si3023   Si       0.51323    0.52395    0.88974    1.000
    N3024    N        0.50170    0.56697    0.88206    1.000
    Si3025   Si       0.47410    0.59875    0.89599    1.000
    N3026    N        0.51208    0.50991    0.97579    1.000
    N3027    N        0.49634    0.62567    0.92552    1.000
    Si3028   Si       0.47373    0.51081    0.95324    1.000
    N3029    N        0.46803    0.74619    0.96346    1.000
    N3030    N        0.48733    0.75033    0.89295    1.000
    Si3031   Si       0.46205    0.70775    0.98035    1.000
    N3032    N        0.49679    0.68179    0.97033    1.000
    Si3033   Si       0.49217    0.63788    0.96628    1.000
    Si3034   Si       0.50071    0.75536    0.93362    1.000
    N3035    N        0.49217    0.80286    0.06734    1.000
    N3036    N        0.48986    0.86387    0.09667    1.000
    Si3037   Si       0.49005    0.78274    0.02831    1.000
    Si3038   Si       0.46386    0.78200    0.09246    1.000
    N3039    N        0.50563    0.93521    0.08180    1.000
    Si3040   Si       0.49575    0.89706    0.06518    1.000
    Si3041   Si       0.47498    0.96496    0.09860    1.000
    N3042    N        0.48380    0.99429    0.06908    1.000
    N3043    N        0.47761    0.77355    0.13435    1.000
    N3044    N        0.48164    0.80420    0.20119    1.000
    N3045    N        0.47770    0.86923    0.21549    1.000
    Si3046   Si       0.50029    0.79609    0.16257    1.000
    Si3047   Si       0.49888    0.86628    0.14024    1.000
    N3048    N        0.45959    0.84853    0.15125    1.000
    Si3049   Si       0.48644    0.79019    0.24234    1.000
    N3050    N        0.50939    0.90388    0.15722    1.000
    N3051    N        0.47110    0.93598    0.22353    1.000
    Si3052   Si       0.49849    0.90582    0.20186    1.000
    N3053    N        0.51099    0.99013    0.21342    1.000
    N3054    N        0.49694    0.96965    0.13646    1.000
    Si3055   Si       0.47000    0.98265    0.21999    1.000
    Si3056   Si       0.49216    0.82044    0.35567    1.000
    Si3057   Si       0.48342    0.86207    0.25878    1.000
    N3058    N        0.50424    0.82364    0.26372    1.000
    N3059    N        0.51470    0.78264    0.35984    1.000
    N3060    N        0.51314    0.84718    0.32876    1.000
    Si3061   Si       0.51153    0.88980    0.32182    1.000
    N3062    N        0.47314    0.90617    0.33680    1.000
    Si3063   Si       0.48072    0.93297    0.26803    1.000
    N3064    N        0.50257    0.89602    0.27557    1.000
    Si3065   Si       0.49503    0.99840    0.28871    1.000
    N3066    N        0.46062    0.98952    0.26299    1.000
    N3067    N        0.50928    0.95943    0.28969    1.000
    Si3068   Si       0.49330    0.00112    0.36745    1.000
    Si3069   Si       0.50240    0.78842    0.46635    1.000
    N3070    N        0.49898    0.82623    0.39842    1.000
    Si3071   Si       0.50829    0.85486    0.43152    1.000
    N3072    N        0.51704    0.76288    0.43339    1.000
    N3073    N        0.51312    0.83280    0.46773    1.000
    N3074    N        0.46144    0.95069    0.44194    1.000
    N3075    N        0.47540    0.88301    0.44057    1.000
    N3076    N        0.46281    0.97271    0.37692    1.000
    N3077    N        0.50810    0.92412    0.39758    1.000
    Si3078   Si       0.47061    0.92644    0.37330    1.000
    Si3079   Si       0.49320    0.92157    0.43992    1.000
    Si3080   Si       0.45832    0.98730    0.46760    1.000
    N3081    N        0.49807    0.00459    0.46365    1.000
    Si3082   Si       0.47477    0.83041    0.57464    1.000
    N3083    N        0.47888    0.78456    0.57028    1.000
    Si3084   Si       0.46851    0.77844    0.53002    1.000
    N3085    N        0.47330    0.82732    0.52635    1.000
    N3086    N        0.50911    0.77312    0.50713    1.000
    N3087    N        0.50879    0.83801    0.59969    1.000
    N3088    N        0.46445    0.87625    0.57091    1.000
    Si3089   Si       0.51409    0.84293    0.51044    1.000
    N3090    N        0.48009    0.93900    0.55516    1.000
    Si3091   Si       0.49837    0.89979    0.55567    1.000
    Si3092   Si       0.50491    0.97531    0.55474    1.000
    N3093    N        0.46233    0.99978    0.57209    1.000
    N3094    N        0.48283    0.80591    0.71719    1.000
    Si3095   Si       0.47985    0.84745    0.73329    1.000
    N3096    N        0.47092    0.87942    0.70245    1.000
    Si3097   Si       0.45713    0.78787    0.68726    1.000
    N3098    N        0.45627    0.78858    0.64304    1.000
    N3099    N        0.49159    0.93770    0.67445    1.000
    Si3100   Si       0.47684    0.97784    0.66525    1.000
    N3101    N        0.50425    0.00389    0.64410    1.000
    Si3102   Si       0.48026    0.89782    0.66359    1.000
    Si3103   Si       0.47474    0.00661    0.74161    1.000
    N3104    N        0.47702    0.00786    0.69804    1.000
    N3105    N        0.48395    0.82487    0.79995    1.000
    Si3106   Si       0.46987    0.85347    0.83863    1.000
    N3107    N        0.47363    0.82208    0.86894    1.000
    N3108    N        0.46349    0.88025    0.87538    1.000
    Si3109   Si       0.51426    0.75374    0.85975    1.000
    N3110    N        0.48321    0.88848    0.81177    1.000
    Si3111   Si       0.49522    0.92853    0.81931    1.000
    N3112    N        0.50777    0.93810    0.86085    1.000
    N3113    N        0.51275    0.98929    0.75623    1.000
    N3114    N        0.46380    0.95660    0.81183    1.000
    N3115    N        0.48005    0.93266    0.74912    1.000
    N3116    N        0.51528    0.79444    0.94209    1.000
    N3117    N        0.51257    0.86342    0.92564    1.000
    Si3118   Si       0.47856    0.84777    0.90115    1.000
    Si3119   Si       0.49095    0.83382    0.96452    1.000
    N3120    N        0.47781    0.87402    0.98281    1.000
    N3121    N        0.47799    0.80735    0.99561    1.000
    N3122    N        0.47425    0.92288    0.92743    1.000
    Si3123   Si       0.49969    0.89718    0.95029    1.000
    N3124    N        0.47630    0.97335    0.98095    1.000
    Si3125   Si       0.47197    0.92249    0.88474    1.000
    N3126    N        0.53981    0.07706    0.11098    1.000
    N3127    N        0.55660    0.12227    0.05118    1.000
    Si3128   Si       0.56812    0.09709    0.08568    1.000
    N3129    N        0.53046    0.05460    0.04774    1.000
    Si3130   Si       0.56718    0.03142    0.05677    1.000
    Si3131   Si       0.54166    0.23884    0.10641    1.000
    N3132    N        0.55333    0.21564    0.07137    1.000
    N3133    N        0.54301    0.17404    0.01521    1.000
    Si3134   Si       0.52053    0.20164    0.04581    1.000
    Si3135   Si       0.57970    0.14949    0.02269    1.000
    Si3136   Si       0.53081    0.02561    0.23395    1.000
    N3137    N        0.56402    0.08200    0.18397    1.000
    Si3138   Si       0.54983    0.05967    0.14812    1.000
    N3139    N        0.57211    0.02374    0.21756    1.000
    N3140    N        0.53989    0.16878    0.15866    1.000
    Si3141   Si       0.55967    0.24513    0.21735    1.000
    Si3142   Si       0.53037    0.17234    0.20101    1.000
    N3143    N        0.53286    0.21123    0.21933    1.000
    N3144    N        0.55418    0.14493    0.22377    1.000
    Si3145   Si       0.56205    0.02527    0.30698    1.000
    N3146    N        0.56106    0.04264    0.34563    1.000
    N3147    N        0.53045    0.02258    0.27710    1.000
    N3148    N        0.55414    0.15027    0.29718    1.000
    N3149    N        0.55584    0.21401    0.32620    1.000
    Si3150   Si       0.56771    0.17341    0.33333    1.000
    Si3151   Si       0.54624    0.25400    0.34736    1.000
    N3152    N        0.54901    0.15502    0.36881    1.000
    Si3153   Si       0.56759    0.08509    0.43210    1.000
    N3154    N        0.55727    0.01849    0.42139    1.000
    N3155    N        0.53127    0.06942    0.45784    1.000
    Si3156   Si       0.56344    0.01027    0.37790    1.000
    N3157    N        0.56517    0.01181    0.48758    1.000
    N3158    N        0.56361    0.12759    0.44036    1.000
    Si3159   Si       0.52501    0.09772    0.49163    1.000
    Si3160   Si       0.51800    0.03312    0.43604    1.000
    Si3161   Si       0.56652    0.15263    0.47369    1.000
    Si3162   Si       0.57735    0.13847    0.39856    1.000
    Si3163   Si       0.54838    0.22777    0.46814    1.000
    N3164    N        0.53777    0.18438    0.46945    1.000
    N3165    N        0.56909    0.23399    0.42888    1.000
    N3166    N        0.56573    0.05990    0.54309    1.000
    N3167    N        0.56708    0.12510    0.57204    1.000
    Si3168   Si       0.52491    0.05224    0.55111    1.000
    Si3169   Si       0.53124    0.01219    0.61273    1.000
    N3170    N        0.55890    0.12421    0.50461    1.000
    Si3171   Si       0.53781    0.14177    0.60336    1.000
    N3172    N        0.56713    0.18820    0.53800    1.000
    Si3173   Si       0.52421    0.19710    0.54885    1.000
    N3174    N        0.57367    0.24658    0.49803    1.000
    N3175    N        0.57170    0.01520    0.62713    1.000
    N3176    N        0.53520    0.04724    0.69123    1.000
    Si3177   Si       0.54125    0.08683    0.70534    1.000
    Si3178   Si       0.57334    0.02756    0.70032    1.000
    N3179    N        0.57611    0.02997    0.74529    1.000
    N3180    N        0.56681    0.14624    0.63624    1.000
    N3181    N        0.54823    0.19614    0.69456    1.000
    N3182    N        0.56716    0.21893    0.62990    1.000
    Si3183   Si       0.52909    0.22354    0.72383    1.000
    Si3184   Si       0.56980    0.18581    0.65703    1.000
    Si3185   Si       0.54182    0.04137    0.83380    1.000
    N3186    N        0.53882    0.04788    0.79096    1.000
    Si3187   Si       0.56259    0.07102    0.75997    1.000
    N3188    N        0.57185    0.06771    0.84893    1.000
    N3189    N        0.52375    0.08870    0.74684    1.000
    Si3190   Si       0.54746    0.00547    0.77630    1.000
    N3191    N        0.52012    0.22646    0.83009    1.000
    Si3192   Si       0.54590    0.23627    0.79811    1.000
    N3193    N        0.53617    0.20925    0.76367    1.000
    Si3194   Si       0.53579    0.16574    0.77069    1.000
    Si3195   Si       0.52624    0.18670    0.84766    1.000
    N3196    N        0.56994    0.18103    0.85544    1.000
    N3197    N        0.56799    0.15270    0.74751    1.000
    N3198    N        0.51590    0.16201    0.81199    1.000
    N3199    N        0.54042    0.06129    0.91785    1.000
    Si3200   Si       0.56815    0.08264    0.89039    1.000
    N3201    N        0.55377    0.12191    0.88775    1.000
    Si3202   Si       0.54394    0.01795    0.92054    1.000
    N3203    N        0.51827    0.00371    0.88660    1.000
    Si3204   Si       0.54286    0.19705    0.97750    1.000
    N3205    N        0.54020    0.24230    0.98416    1.000
    N3206    N        0.57382    0.19296    0.94677    1.000
    N3207    N        0.53300    0.23766    0.91880    1.000
    N3208    N        0.55162    0.32992    0.05838    1.000
    Si3209   Si       0.54581    0.31792    0.01576    1.000
    Si3210   Si       0.53178    0.31409    0.09369    1.000
    N3211    N        0.55208    0.45065    0.00587    1.000
    N3212    N        0.55928    0.39999    0.04290    1.000
    Si3213   Si       0.55791    0.44582    0.05022    1.000
    N3214    N        0.52343    0.45585    0.07851    1.000
    Si3215   Si       0.52364    0.48519    0.00847    1.000
    Si3216   Si       0.55299    0.39843    0.99880    1.000
    N3217    N        0.55889    0.31628    0.12741    1.000
    N3218    N        0.56628    0.34057    0.22046    1.000
    N3219    N        0.54230    0.27112    0.18532    1.000
    Si3220   Si       0.53991    0.37141    0.20505    1.000
    N3221    N        0.56401    0.37675    0.14315    1.000
    Si3222   Si       0.57062    0.28510    0.15710    1.000
    Si3223   Si       0.52248    0.37053    0.13535    1.000
    Si3224   Si       0.52710    0.44605    0.12128    1.000
    N3225    N        0.57289    0.47091    0.22192    1.000
    N3226    N        0.56992    0.43805    0.12521    1.000
    N3227    N        0.55275    0.41250    0.19360    1.000
    N3228    N        0.52809    0.47119    0.15927    1.000
    Si3229   Si       0.53857    0.45288    0.19792    1.000
    N3230    N        0.54320    0.28407    0.31546    1.000
    Si3231   Si       0.54761    0.32661    0.32529    1.000
    N3232    N        0.55683    0.34970    0.28935    1.000
    Si3233   Si       0.55307    0.32141    0.25619    1.000
    N3234    N        0.57021    0.27877    0.24823    1.000
    N3235    N        0.57010    0.48537    0.28568    1.000
    N3236    N        0.53291    0.46011    0.35205    1.000
    N3237    N        0.53497    0.43053    0.28345    1.000
    Si3238   Si       0.53516    0.42637    0.32531    1.000
    Si3239   Si       0.56954    0.45012    0.26071    1.000
    N3240    N        0.55850    0.29645    0.45479    1.000
    Si3241   Si       0.54622    0.33785    0.44845    1.000
    N3242    N        0.54679    0.27547    0.38505    1.000
    N3243    N        0.53796    0.35837    0.48395    1.000
    Si3244   Si       0.57164    0.27559    0.41868    1.000
    Si3245   Si       0.57789    0.36623    0.38631    1.000
    N3246    N        0.54327    0.50216    0.40953    1.000
    Si3247   Si       0.56169    0.47887    0.37854    1.000
    N3248    N        0.53960    0.38612    0.39104    1.000
    Si3249   Si       0.52236    0.41700    0.41598    1.000
    N3250    N        0.55629    0.44145    0.42787    1.000
    Si3251   Si       0.55756    0.48056    0.44533    1.000
    N3252    N        0.53777    0.48344    0.48494    1.000
    N3253    N        0.54635    0.37158    0.55087    1.000
    N3254    N        0.53211    0.30402    0.57628    1.000
    Si3255   Si       0.56556    0.35305    0.51587    1.000
    Si3256   Si       0.57324    0.29547    0.56327    1.000
    Si3257   Si       0.52579    0.34676    0.57890    1.000
    N3258    N        0.57453    0.31132    0.52349    1.000
    N3259    N        0.52915    0.36482    0.61715    1.000
    Si3260   Si       0.53475    0.41417    0.54616    1.000
    N3261    N        0.56569    0.47083    0.60618    1.000
    N3262    N        0.57033    0.43743    0.54351    1.000
    Si3263   Si       0.52845    0.29761    0.71067    1.000
    Si3264   Si       0.54060    0.34975    0.65713    1.000
    Si3265   Si       0.54243    0.37196    0.73074    1.000
    N3266    N        0.54639    0.32685    0.73673    1.000
    N3267    N        0.54989    0.26039    0.71626    1.000
    N3268    N        0.53313    0.37978    0.68864    1.000
    N3269    N        0.52925    0.50228    0.66444    1.000
    Si3270   Si       0.56596    0.43449    0.73591    1.000
    Si3271   Si       0.53556    0.49116    0.70586    1.000
    Si3272   Si       0.52953    0.47440    0.63095    1.000
    N3273    N        0.53513    0.44783    0.70764    1.000
    N3274    N        0.53173    0.27685    0.78799    1.000
    N3275    N        0.53515    0.37033    0.83650    1.000
    Si3276   Si       0.56341    0.30641    0.77297    1.000
    Si3277   Si       0.56766    0.34001    0.83973    1.000
    N3278    N        0.56966    0.29924    0.84924    1.000
    N3279    N        0.57773    0.33920    0.79636    1.000
    N3280    N        0.55542    0.46304    0.76713    1.000
    Si3281   Si       0.55756    0.40305    0.85692    1.000
    N3282    N        0.54344    0.43387    0.82836    1.000
    N3283    N        0.57487    0.39393    0.74953    1.000
    Si3284   Si       0.51940    0.48823    0.77173    1.000
    N3285    N        0.52243    0.49499    0.85727    1.000
    Si3286   Si       0.57444    0.45103    0.80324    1.000
    Si3287   Si       0.52421    0.26876    0.94559    1.000
    Si3288   Si       0.53674    0.34873    0.95068    1.000
    N3289    N        0.54199    0.30661    0.94435    1.000
    N3290    N        0.56900    0.36785    0.92632    1.000
    N3291    N        0.54631    0.35471    0.99309    1.000
    N3292    N        0.52738    0.40685    0.96133    1.000
    Si3293   Si       0.55834    0.41125    0.93002    1.000
    N3294    N        0.53490    0.41057    0.89176    1.000
    Si3295   Si       0.55300    0.59297    0.08705    1.000
    N3296    N        0.52927    0.61364    0.05796    1.000
    Si3297   Si       0.52506    0.58987    0.02064    1.000
    Si3298   Si       0.54454    0.52257    0.07523    1.000
    N3299    N        0.57054    0.55935    0.06338    1.000
    N3300    N        0.55091    0.56340    0.99740    1.000
    Si3301   Si       0.57586    0.53986    0.02458    1.000
    N3302    N        0.54930    0.50659    0.03615    1.000
    N3303    N        0.55974    0.50525    0.11272    1.000
    Si3304   Si       0.55701    0.74391    0.01199    1.000
    Si3305   Si       0.53583    0.69470    0.11466    1.000
    N3306    N        0.53435    0.65104    0.11457    1.000
    N3307    N        0.52076    0.69478    0.07324    1.000
    Si3308   Si       0.53829    0.51085    0.14918    1.000
    N3309    N        0.53358    0.58724    0.12606    1.000
    Si3310   Si       0.54549    0.55804    0.20601    1.000
    Si3311   Si       0.54781    0.62510    0.14580    1.000
    N3312    N        0.56421    0.52530    0.17982    1.000
    N3313    N        0.56930    0.59151    0.20173    1.000
    N3314    N        0.55153    0.53326    0.24122    1.000
    Si3315   Si       0.54708    0.73455    0.23761    1.000
    N3316    N        0.54535    0.71295    0.19801    1.000
    N3317    N        0.52684    0.64266    0.17869    1.000
    N3318    N        0.56900    0.71402    0.13278    1.000
    Si3319   Si       0.55900    0.74031    0.16618    1.000
    N3320    N        0.53685    0.54606    0.31086    1.000
    Si3321   Si       0.52750    0.62314    0.28466    1.000
    N3322    N        0.56602    0.60275    0.27973    1.000
    Si3323   Si       0.53979    0.51652    0.27804    1.000
    Si3324   Si       0.57315    0.57143    0.30854    1.000
    N3325    N        0.54162    0.66240    0.29945    1.000
    N3326    N        0.54305    0.72339    0.31809    1.000
    Si3327   Si       0.57557    0.69325    0.29944    1.000
    N3328    N        0.57504    0.70945    0.25864    1.000
    N3329    N        0.52316    0.55897    0.38209    1.000
    Si3330   Si       0.56865    0.54714    0.37622    1.000
    N3331    N        0.56025    0.62129    0.40063    1.000
    Si3332   Si       0.52671    0.59487    0.40796    1.000
    N3333    N        0.53178    0.57509    0.44927    1.000
    Si3334   Si       0.57412    0.56642    0.45284    1.000
    N3335    N        0.55644    0.68537    0.37796    1.000
    Si3336   Si       0.54909    0.67322    0.46972    1.000
    N3337    N        0.52235    0.68582    0.43629    1.000
    Si3338   Si       0.53570    0.65937    0.40508    1.000
    N3339    N        0.53995    0.63666    0.49196    1.000
    N3340    N        0.54386    0.70688    0.49523    1.000
    N3341    N        0.53200    0.55720    0.58151    1.000
    N3342    N        0.56760    0.57920    0.53111    1.000
    Si3343   Si       0.54855    0.51825    0.50761    1.000
    Si3344   Si       0.56661    0.56871    0.60439    1.000
    Si3345   Si       0.52636    0.57468    0.54371    1.000
    Si3346   Si       0.57645    0.61238    0.50326    1.000
    N3347    N        0.57329    0.51159    0.54281    1.000
    N3348    N        0.57430    0.61074    0.60084    1.000
    N3349    N        0.53334    0.73951    0.55494    1.000
    N3350    N        0.54860    0.67250    0.57426    1.000
    Si3351   Si       0.54895    0.64618    0.60805    1.000
    Si3352   Si       0.56422    0.71126    0.56808    1.000
    N3353    N        0.57053    0.51487    0.71628    1.000
    N3354    N        0.56833    0.55625    0.64590    1.000
    N3355    N        0.53220    0.56655    0.70401    1.000
    Si3356   Si       0.56794    0.55573    0.72564    1.000
    Si3357   Si       0.53060    0.54508    0.66590    1.000
    N3358    N        0.55563    0.62849    0.69783    1.000
    Si3359   Si       0.51857    0.60713    0.71005    1.000
    N3360    N        0.52306    0.74335    0.72607    1.000
    N3361    N        0.56541    0.66651    0.64288    1.000
    Si3362   Si       0.55246    0.66973    0.68359    1.000
    N3363    N        0.57429    0.69447    0.71057    1.000
    Si3364   Si       0.55205    0.71395    0.74201    1.000
    N3365    N        0.52053    0.75582    0.62037    1.000
    Si3366   Si       0.53424    0.58328    0.85600    1.000
    N3367    N        0.56100    0.57327    0.76445    1.000
    N3368    N        0.56565    0.55190    0.85278    1.000
    Si3369   Si       0.55275    0.51594    0.83170    1.000
    N3370    N        0.53127    0.52226    0.79573    1.000
    Si3371   Si       0.52363    0.56477    0.78475    1.000
    N3372    N        0.56895    0.64219    0.77820    1.000
    Si3373   Si       0.52530    0.64690    0.77649    1.000
    N3374    N        0.52215    0.68736    0.75820    1.000
    N3375    N        0.54706    0.62142    0.87016    1.000
    Si3376   Si       0.54617    0.53480    0.96233    1.000
    N3377    N        0.54632    0.52626    0.91809    1.000
    N3378    N        0.52171    0.62271    0.99204    1.000
    N3379    N        0.55557    0.66408    0.93189    1.000
    N3380    N        0.56328    0.70431    0.99286    1.000
    N3381    N        0.52320    0.68179    0.88073    1.000
    N3382    N        0.53019    0.72425    0.93382    1.000
    Si3383   Si       0.55211    0.70858    0.89977    1.000
    Si3384   Si       0.53701    0.69092    0.96127    1.000
    Si3385   Si       0.52834    0.64598    0.90279    1.000
    N3386    N        0.55333    0.74293    0.87411    1.000
    Si3387   Si       0.55274    0.86211    0.01387    1.000
    N3388    N        0.55833    0.81672    0.06975    1.000
    N3389    N        0.52585    0.87118    0.04703    1.000
    Si3390   Si       0.51873    0.83603    0.07235    1.000
    Si3391   Si       0.52224    0.97481    0.06274    1.000
    N3392    N        0.53419    0.96915    0.02195    1.000
    N3393    N        0.56756    0.92936    0.11308    1.000
    N3394    N        0.55742    0.99300    0.07802    1.000
    Si3395   Si       0.57717    0.97419    0.01843    1.000
    Si3396   Si       0.56281    0.81180    0.16226    1.000
    N3397    N        0.53892    0.77677    0.16838    1.000
    N3398    N        0.52493    0.83206    0.15186    1.000
    N3399    N        0.57449    0.77113    0.24117    1.000
    Si3400   Si       0.56838    0.92303    0.18866    1.000
    N3401    N        0.54917    0.95714    0.17024    1.000
    Si3402   Si       0.52708    0.93790    0.13077    1.000
    N3403    N        0.53901    0.90712    0.21720    1.000
    Si3404   Si       0.52070    0.98935    0.17070    1.000
    Si3405   Si       0.53351    0.82944    0.29510    1.000
    N3406    N        0.55531    0.79156    0.30414    1.000
    N3407    N        0.55746    0.86090    0.27870    1.000
    Si3408   Si       0.54616    0.76325    0.33658    1.000
    N3409    N        0.54000    0.92056    0.33326    1.000
    Si3410   Si       0.55046    0.95021    0.30377    1.000
    Si3411   Si       0.54517    0.89756    0.25930    1.000
    N3412    N        0.53272    0.98366    0.36301    1.000
    N3413    N        0.57251    0.92570    0.27499    1.000
    Si3414   Si       0.52563    0.79002    0.40169    1.000
    N3415    N        0.56531    0.80247    0.41155    1.000
    N3416    N        0.55003    0.86713    0.42319    1.000
    Si3417   Si       0.54127    0.94075    0.37317    1.000
    Si3418   Si       0.56589    0.90829    0.43170    1.000
    N3419    N        0.53381    0.92217    0.45877    1.000
    N3420    N        0.57438    0.93864    0.40271    1.000
    N3421    N        0.53889    0.82144    0.53980    1.000
    Si3422   Si       0.54835    0.82442    0.58143    1.000
    Si3423   Si       0.54199    0.77707    0.53445    1.000
    Si3424   Si       0.53211    0.87259    0.61631    1.000
    N3425    N        0.56970    0.85360    0.60621    1.000
    N3426    N        0.57503    0.79028    0.58640    1.000
    Si3427   Si       0.56361    0.76139    0.61823    1.000
    Si3428   Si       0.55050    0.93745    0.60024    1.000
    N3429    N        0.52766    0.95824    0.51664    1.000
    N3430    N        0.53053    0.97587    0.58907    1.000
    N3431    N        0.52758    0.90333    0.58676    1.000
    Si3432   Si       0.53866    0.91947    0.50154    1.000
    N3433    N        0.51398    0.88655    0.51773    1.000
    Si3434   Si       0.52620    0.99540    0.49440    1.000
    N3435    N        0.55360    0.80992    0.70616    1.000
    Si3436   Si       0.55685    0.84640    0.72919    1.000
    Si3437   Si       0.52249    0.78737    0.72808    1.000
    N3438    N        0.56020    0.94302    0.64219    1.000
    N3439    N        0.54760    0.93151    0.71656    1.000
    Si3440   Si       0.53459    0.92558    0.67393    1.000
    N3441    N        0.52209    0.88818    0.65375    1.000
    N3442    N        0.54182    0.85173    0.81434    1.000
    N3443    N        0.53868    0.79491    0.76698    1.000
    N3444    N        0.53390    0.78606    0.83781    1.000
    Si3445   Si       0.52521    0.81292    0.80506    1.000
    N3446    N        0.51794    0.86068    0.74887    1.000
    Si3447   Si       0.52034    0.88025    0.78852    1.000
    N3448    N        0.55144    0.99780    0.82820    1.000
    N3449    N        0.52999    0.92415    0.78890    1.000
    Si3450   Si       0.53527    0.97145    0.86121    1.000
    Si3451   Si       0.52115    0.94436    0.74995    1.000
    N3452    N        0.56937    0.77626    0.98440    1.000
    Si3453   Si       0.55207    0.81034    0.96209    1.000
    Si3454   Si       0.55505    0.86714    0.91590    1.000
    N3455    N        0.53195    0.83956    0.98607    1.000
    N3456    N        0.57261    0.83208    0.93107    1.000
    N3457    N        0.56310    0.87732    0.87457    1.000
    N3458    N        0.57498    0.90274    0.92990    1.000
    Si3459   Si       0.51879    0.96430    0.98208    1.000
    N3460    N        0.52624    0.92351    0.97057    1.000
    Si3461   Si       0.56997    0.92126    0.96726    1.000
    N3462    N        0.57050    0.95668    0.88326    1.000
    N3463    N        0.52585    0.99597    0.95342    1.000
    N3464    N        0.59463    0.06409    0.07187    1.000
    N3465    N        0.58921    0.01567    0.02111    1.000
    Si3466   Si       0.62543    0.02790    0.00061    1.000
    N3467    N        0.58369    0.13129    0.10904    1.000
    N3468    N        0.62965    0.10863    0.03035    1.000
    N3469    N        0.60436    0.16698    0.05299    1.000
    N3470    N        0.59855    0.22010    0.01228    1.000
    Si3471   Si       0.60938    0.16369    0.09595    1.000
    Si3472   Si       0.59299    0.20850    0.05400    1.000
    N3473    N        0.62777    0.22840    0.07606    1.000
    Si3474   Si       0.62058    0.25566    0.11083    1.000
    Si3475   Si       0.59282    0.04790    0.19030    1.000
    N3476    N        0.58513    0.03357    0.14604    1.000
    N3477    N        0.62885    0.06917    0.19948    1.000
    Si3478   Si       0.61979    0.01017    0.14174    1.000
    N3479    N        0.60414    0.13604    0.17766    1.000
    Si3480   Si       0.58042    0.11249    0.20828    1.000
    N3481    N        0.57819    0.25227    0.12861    1.000
    Si3482   Si       0.61527    0.21438    0.16560    1.000
    Si3483   Si       0.57750    0.15359    0.14850    1.000
    N3484    N        0.60362    0.18701    0.13311    1.000
    N3485    N        0.59498    0.22858    0.20124    1.000
    Si3486   Si       0.62616    0.20677    0.23078    1.000
    N3487    N        0.59907    0.04472    0.28884    1.000
    Si3488   Si       0.61645    0.08388    0.28446    1.000
    N3489    N        0.60248    0.10324    0.32265    1.000
    Si3490   Si       0.59251    0.07387    0.35389    1.000
    N3491    N        0.60176    0.10897    0.24972    1.000
    Si3492   Si       0.62681    0.13681    0.33588    1.000
    N3493    N        0.61185    0.17683    0.33020    1.000
    N3494    N        0.60643    0.17965    0.25893    1.000
    N3495    N        0.63243    0.24076    0.25770    1.000
    N3496    N        0.61248    0.23773    0.37199    1.000
    Si3497   Si       0.57847    0.14660    0.26077    1.000
    N3498    N        0.57850    0.09472    0.38956    1.000
    Si3499   Si       0.58809    0.01916    0.45035    1.000
    N3500    N        0.60129    0.06166    0.44624    1.000
    Si3501   Si       0.63253    0.17473    0.44233    1.000
    Si3502   Si       0.60386    0.21867    0.40944    1.000
    N3503    N        0.60742    0.17008    0.47813    1.000
    N3504    N        0.60212    0.17488    0.40855    1.000
    Si3505   Si       0.58696    0.02762    0.52224    1.000
    N3506    N        0.59087    0.07946    0.61255    1.000
    N3507    N        0.62734    0.08693    0.55678    1.000
    Si3508   Si       0.58753    0.08516    0.57064    1.000
    N3509    N        0.62464    0.03963    0.50538    1.000
    Si3510   Si       0.58998    0.22657    0.53321    1.000
    Si3511   Si       0.59478    0.24261    0.60889    1.000
    N3512    N        0.62434    0.15893    0.54366    1.000
    N3513    N        0.62931    0.22288    0.51670    1.000
    N3514    N        0.62965    0.21705    0.60671    1.000
    Si3515   Si       0.58071    0.14773    0.53846    1.000
    N3516    N        0.58702    0.25388    0.56765    1.000
    Si3517   Si       0.60028    0.11891    0.62971    1.000
    N3518    N        0.60018    0.05323    0.67764    1.000
    N3519    N        0.62698    0.11197    0.66539    1.000
    Si3520   Si       0.61800    0.08618    0.70136    1.000
    Si3521   Si       0.60238    0.04544    0.63428    1.000
    N3522    N        0.57980    0.09205    0.72230    1.000
    Si3523   Si       0.58142    0.18284    0.71757    1.000
    N3524    N        0.60662    0.17927    0.68125    1.000
    N3525    N        0.60148    0.21581    0.73801    1.000
    Si3526   Si       0.60513    0.08627    0.82931    1.000
    N3527    N        0.58843    0.09484    0.78918    1.000
    Si3528   Si       0.60237    0.12566    0.75729    1.000
    N3529    N        0.61142    0.12404    0.84695    1.000
    N3530    N        0.62120    0.01044    0.79977    1.000
    Si3531   Si       0.59931    0.21235    0.84830    1.000
    N3532    N        0.58659    0.22879    0.80891    1.000
    N3533    N        0.62562    0.15880    0.78087    1.000
    Si3534   Si       0.63362    0.15371    0.82394    1.000
    Si3535   Si       0.61797    0.25461    0.79774    1.000
    Si3536   Si       0.62418    0.10216    0.98651    1.000
    N3537    N        0.58872    0.01570    0.92354    1.000
    Si3538   Si       0.61537    0.04805    0.93226    1.000
    N3539    N        0.60715    0.08397    0.90968    1.000
    N3540    N        0.61192    0.06096    0.97543    1.000
    Si3541   Si       0.58060    0.25364    0.99176    1.000
    Si3542   Si       0.57670    0.22963    0.92188    1.000
    N3543    N        0.59276    0.23881    0.88295    1.000
    N3544    N        0.61383    0.15043    0.91110    1.000
    Si3545   Si       0.60919    0.16936    0.95047    1.000
    Si3546   Si       0.58816    0.14735    0.87664    1.000
    N3547    N        0.59862    0.13856    0.98190    1.000
    Si3548   Si       0.61680    0.31278    0.01055    1.000
    N3549    N        0.61149    0.35222    0.02664    1.000
    N3550    N        0.60451    0.35798    0.09096    1.000
    N3551    N        0.62968    0.30013    0.10806    1.000
    Si3552   Si       0.57995    0.36378    0.05517    1.000
    N3553    N        0.57875    0.29287    0.01060    1.000
    Si3554   Si       0.63719    0.32787    0.07219    1.000
    Si3555   Si       0.62635    0.38949    0.00944    1.000
    Si3556   Si       0.58672    0.47326    0.10839    1.000
    N3557    N        0.59525    0.46035    0.06869    1.000
    Si3558   Si       0.63554    0.44456    0.07014    1.000
    Si3559   Si       0.60702    0.32779    0.21333    1.000
    N3560    N        0.62767    0.36839    0.21784    1.000
    N3561    N        0.60565    0.30930    0.17194    1.000
    Si3562   Si       0.59017    0.34462    0.13088    1.000
    N3563    N        0.63383    0.30115    0.23316    1.000
    N3564    N        0.63282    0.35889    0.14700    1.000
    N3565    N        0.62401    0.47975    0.12828    1.000
    Si3566   Si       0.57881    0.41238    0.15928    1.000
    N3567    N        0.61978    0.42056    0.16857    1.000
    Si3568   Si       0.61975    0.33228    0.32556    1.000
    N3569    N        0.61578    0.29816    0.30107    1.000
    N3570    N        0.62341    0.36704    0.29838    1.000
    Si3571   Si       0.61257    0.27797    0.26269    1.000
    N3572    N        0.58249    0.34119    0.35118    1.000
    Si3573   Si       0.58057    0.38491    0.29593    1.000
    N3574    N        0.59521    0.41363    0.26485    1.000
    Si3575   Si       0.60917    0.42253    0.35514    1.000
    N3576    N        0.63377    0.49112    0.32565    1.000
    Si3577   Si       0.63109    0.38958    0.25460    1.000
    Si3578   Si       0.63174    0.49049    0.37029    1.000
    N3579    N        0.57441    0.40941    0.33257    1.000
    Si3580   Si       0.59468    0.50583    0.31506    1.000
    N3581    N        0.62182    0.30949    0.47881    1.000
    N3582    N        0.61191    0.28975    0.41193    1.000
    Si3583   Si       0.61762    0.32335    0.43728    1.000
    Si3584   Si       0.58433    0.28766    0.48958    1.000
    N3585    N        0.58244    0.34864    0.42558    1.000
    Si3586   Si       0.63274    0.27706    0.37728    1.000
    N3587    N        0.61155    0.39460    0.38783    1.000
    Si3588   Si       0.60074    0.44255    0.42495    1.000
    N3589    N        0.63199    0.41690    0.44552    1.000
    N3590    N        0.60083    0.45725    0.38093    1.000
    Si3591   Si       0.63044    0.40050    0.48473    1.000
    N3592    N        0.60089    0.48146    0.44485    1.000
    N3593    N        0.59845    0.32077    0.58663    1.000
    Si3594   Si       0.62913    0.35198    0.58295    1.000
    N3595    N        0.60084    0.37185    0.49976    1.000
    N3596    N        0.61498    0.39166    0.57973    1.000
    Si3597   Si       0.61104    0.42330    0.55094    1.000
    N3598    N        0.61989    0.46015    0.57502    1.000
    Si3599   Si       0.60640    0.45710    0.61801    1.000
    Si3600   Si       0.57909    0.47545    0.56479    1.000
    N3601    N        0.63484    0.42906    0.51528    1.000
    Si3602   Si       0.59100    0.25743    0.72837    1.000
    Si3603   Si       0.60506    0.31893    0.62888    1.000
    N3604    N        0.62066    0.28162    0.70668    1.000
    N3605    N        0.60582    0.27536    0.63746    1.000
    Si3606   Si       0.61292    0.37881    0.64623    1.000
    N3607    N        0.58249    0.34747    0.65262    1.000
    Si3608   Si       0.63493    0.26881    0.66868    1.000
    N3609    N        0.62671    0.34826    0.74480    1.000
    N3610    N        0.60452    0.42171    0.64383    1.000
    N3611    N        0.62809    0.48853    0.63753    1.000
    N3612    N        0.60043    0.44825    0.71419    1.000
    Si3613   Si       0.60408    0.49111    0.72653    1.000
    N3614    N        0.62777    0.38443    0.68688    1.000
    Si3615   Si       0.62415    0.42770    0.68531    1.000
    N3616    N        0.59938    0.28106    0.76586    1.000
    Si3617   Si       0.60188    0.37014    0.77500    1.000
    N3618    N        0.59111    0.36631    0.86465    1.000
    N3619    N        0.63160    0.26895    0.83654    1.000
    Si3620   Si       0.60228    0.27870    0.86825    1.000
    N3621    N        0.63178    0.38102    0.80688    1.000
    Si3622   Si       0.63201    0.30526    0.74165    1.000
    Si3623   Si       0.62309    0.50026    0.80705    1.000
    N3624    N        0.58536    0.48704    0.82782    1.000
    Si3625   Si       0.62228    0.39286    0.85275    1.000
    N3626    N        0.61556    0.44389    0.79033    1.000
    Si3627   Si       0.61303    0.47019    0.86103    1.000
    N3628    N        0.59993    0.42822    0.86289    1.000
    N3629    N        0.61794    0.50663    0.76372    1.000
    Si3630   Si       0.62606    0.28653    0.93925    1.000
    N3631    N        0.61047    0.30613    0.90304    1.000
    Si3632   Si       0.60125    0.34902    0.90416    1.000
    N3633    N        0.62953    0.31577    0.97003    1.000
    N3634    N        0.59850    0.25498    0.95121    1.000
    Si3635   Si       0.58838    0.45082    0.97968    1.000
    N3636    N        0.57503    0.44969    0.93578    1.000
    N3637    N        0.60974    0.49759    0.89471    1.000
    N3638    N        0.62626    0.47047    0.99094    1.000
    N3639    N        0.59446    0.40667    0.98294    1.000
    Si3640   Si       0.57836    0.49476    0.92456    1.000
    N3641    N        0.57869    0.50624    0.96694    1.000
    N3642    N        0.59397    0.60822    0.09809    1.000
    N3643    N        0.61890    0.53452    0.01748    1.000
    Si3644   Si       0.61033    0.57555    0.07775    1.000
    N3645    N        0.63007    0.53756    0.08619    1.000
    Si3646   Si       0.61884    0.75375    0.07190    1.000
    N3647    N        0.61430    0.67776    0.09764    1.000
    N3648    N        0.61604    0.67619    0.02648    1.000
    N3649    N        0.62380    0.74342    0.11222    1.000
    N3650    N        0.58480    0.75488    0.04431    1.000
    Si3651   Si       0.60011    0.61775    0.19223    1.000
    N3652    N        0.62201    0.53833    0.22262    1.000
    Si3653   Si       0.58546    0.51334    0.21617    1.000
    Si3654   Si       0.61056    0.68371    0.24477    1.000
    Si3655   Si       0.61447    0.64114    0.11804    1.000
    N3656    N        0.63199    0.69196    0.16472    1.000
    N3657    N        0.58916    0.63678    0.15514    1.000
    Si3658   Si       0.61126    0.70786    0.13163    1.000
    N3659    N        0.60062    0.64394    0.22736    1.000
    N3660    N        0.60005    0.54266    0.29352    1.000
    Si3661   Si       0.60177    0.62411    0.26747    1.000
    Si3662   Si       0.62913    0.55414    0.26358    1.000
    N3663    N        0.58179    0.51236    0.35516    1.000
    N3664    N        0.58095    0.58015    0.35019    1.000
    N3665    N        0.63454    0.59657    0.27444    1.000
    N3666    N        0.62043    0.63879    0.34870    1.000
    N3667    N        0.60406    0.70563    0.33092    1.000
    N3668    N        0.61083    0.66277    0.28547    1.000
    Si3669   Si       0.58552    0.71591    0.36837    1.000
    N3670    N        0.57791    0.75860    0.36406    1.000
    Si3671   Si       0.59264    0.61478    0.37300    1.000
    N3672    N        0.58823    0.55315    0.41530    1.000
    Si3673   Si       0.61121    0.62948    0.43605    1.000
    Si3674   Si       0.61724    0.51433    0.46994    1.000
    N3675    N        0.59619    0.60136    0.46520    1.000
    N3676    N        0.62678    0.60334    0.40222    1.000
    Si3677   Si       0.63086    0.55929    0.41337    1.000
    N3678    N        0.57986    0.53332    0.48046    1.000
    N3679    N        0.61039    0.72126    0.47020    1.000
    Si3680   Si       0.61687    0.69218    0.43899    1.000
    N3681    N        0.61578    0.71365    0.40026    1.000
    N3682    N        0.58369    0.66427    0.44507    1.000
    N3683    N        0.60200    0.54830    0.59154    1.000
    Si3684   Si       0.59477    0.54930    0.54833    1.000
    Si3685   Si       0.61369    0.62380    0.61261    1.000
    N3686    N        0.63313    0.55735    0.53070    1.000
    Si3687   Si       0.63554    0.52636    0.61143    1.000
    N3688    N        0.60254    0.63860    0.52398    1.000
    Si3689   Si       0.58007    0.73098    0.50004    1.000
    N3690    N        0.59447    0.71594    0.53797    1.000
    N3691    N        0.62161    0.66576    0.61106    1.000
    N3692    N        0.57957    0.72459    0.60662    1.000
    Si3693   Si       0.60723    0.56628    0.66416    1.000
    Si3694   Si       0.59802    0.61869    0.69816    1.000
    N3695    N        0.61247    0.61148    0.65546    1.000
    N3696    N        0.60146    0.57583    0.70678    1.000
    N3697    N        0.62395    0.64804    0.71693    1.000
    N3698    N        0.62458    0.70238    0.66507    1.000
    Si3699   Si       0.61692    0.69029    0.70614    1.000
    Si3700   Si       0.59793    0.69469    0.63137    1.000
    Si3701   Si       0.60851    0.56495    0.85010    1.000
    N3702    N        0.59781    0.60258    0.82931    1.000
    Si3703   Si       0.58653    0.60300    0.78748    1.000
    N3704    N        0.62704    0.60088    0.76995    1.000
    N3705    N        0.62760    0.54232    0.81613    1.000
    N3706    N        0.63404    0.67063    0.78552    1.000
    Si3707   Si       0.58578    0.63424    0.85606    1.000
    N3708    N        0.58334    0.71204    0.77396    1.000
    Si3709   Si       0.59310    0.67510    0.79323    1.000
    Si3710   Si       0.61760    0.73418    0.75954    1.000
    N3711    N        0.58808    0.67317    0.83670    1.000
    Si3712   Si       0.61262    0.70414    0.85613    1.000
    N3713    N        0.61478    0.74775    0.85722    1.000
    Si3714   Si       0.62120    0.51147    0.97996    1.000
    N3715    N        0.63003    0.56643    0.88757    1.000
    N3716    N        0.59750    0.70189    0.90037    1.000
    N3717    N        0.61070    0.63384    0.89238    1.000
    Si3718   Si       0.60565    0.69314    0.98903    1.000
    Si3719   Si       0.59774    0.66435    0.92177    1.000
    N3720    N        0.62615    0.72704    0.96862    1.000
    N3721    N        0.61868    0.66250    0.95806    1.000
    Si3722   Si       0.62064    0.73995    0.90298    1.000
    N3723    N        0.60069    0.86295    0.10213    1.000
    N3724    N        0.58927    0.83535    0.01726    1.000
    N3725    N        0.62252    0.79977    0.06909    1.000
    Si3726   Si       0.61515    0.87236    0.00850    1.000
    Si3727   Si       0.59406    0.82211    0.09443    1.000
    Si3728   Si       0.58616    0.79778    0.03877    1.000
    N3729    N        0.57908    0.89544    0.00173    1.000
    N3730    N        0.60015    0.95104    0.04860    1.000
    N3731    N        0.62194    0.98054    0.11253    1.000
    Si3732   Si       0.58835    0.96315    0.08978    1.000
    N3733    N        0.63679    0.88893    0.04100    1.000
    N3734    N        0.59891    0.75607    0.17582    1.000
    Si3735   Si       0.61264    0.86227    0.19585    1.000
    N3736    N        0.59006    0.82102    0.19515    1.000
    Si3737   Si       0.60175    0.78115    0.21025    1.000
    Si3738   Si       0.62289    0.77262    0.14445    1.000
    N3739    N        0.59137    0.80186    0.13168    1.000
    N3740    N        0.60416    0.87934    0.23592    1.000
    N3741    N        0.59622    0.94615    0.21388    1.000
    N3742    N        0.59492    0.89231    0.16671    1.000
    Si3743   Si       0.59869    0.98854    0.21847    1.000
    Si3744   Si       0.59820    0.90023    0.12498    1.000
    N3745    N        0.62261    0.00543    0.18701    1.000
    Si3746   Si       0.60066    0.85802    0.27357    1.000
    N3747    N        0.61296    0.81702    0.27320    1.000
    N3748    N        0.60743    0.82346    0.35393    1.000
    Si3749   Si       0.58911    0.78070    0.28073    1.000
    N3750    N        0.62615    0.87472    0.30646    1.000
    N3751    N        0.62938    0.76156    0.29212    1.000
    N3752    N        0.62610    0.99340    0.25382    1.000
    Si3753   Si       0.61618    0.00387    0.29565    1.000
    Si3754   Si       0.60574    0.92061    0.24755    1.000
    N3755    N        0.57967    0.98464    0.30737    1.000
    Si3756   Si       0.57688    0.83581    0.43570    1.000
    N3757    N        0.61808    0.84139    0.42022    1.000
    N3758    N        0.58497    0.84000    0.47776    1.000
    Si3759   Si       0.59768    0.79337    0.38223    1.000
    N3760    N        0.63178    0.77844    0.40148    1.000
    Si3761   Si       0.60170    0.87959    0.48545    1.000
    N3762    N        0.63366    0.78776    0.46799    1.000
    N3763    N        0.61892    0.98920    0.44299    1.000
    N3764    N        0.60546    0.89986    0.44747    1.000
    Si3765   Si       0.60993    0.96386    0.40583    1.000
    N3766    N        0.60341    0.99737    0.37980    1.000
    Si3767   Si       0.61673    0.79166    0.57486    1.000
    Si3768   Si       0.61285    0.85860    0.60382    1.000
    N3769    N        0.62086    0.81125    0.53552    1.000
    N3770    N        0.61994    0.87379    0.56295    1.000
    N3771    N        0.57600    0.77458    0.50453    1.000
    Si3772   Si       0.60525    0.80449    0.49657    1.000
    N3773    N        0.59627    0.99941    0.55277    1.000
    N3774    N        0.58549    0.93478    0.57633    1.000
    Si3775   Si       0.60605    0.91068    0.54715    1.000
    Si3776   Si       0.62055    0.96901    0.57182    1.000
    N3777    N        0.58093    0.90734    0.51144    1.000
    N3778    N        0.62425    0.97323    0.61634    1.000
    N3779    N        0.58072    0.87433    0.70359    1.000
    N3780    N        0.59750    0.76702    0.73671    1.000
    Si3781   Si       0.61277    0.85663    0.68334    1.000
    Si3782   Si       0.59127    0.78770    0.69700    1.000
    N3783    N        0.62377    0.81522    0.69164    1.000
    N3784    N        0.62268    0.87217    0.64475    1.000
    N3785    N        0.58097    0.77438    0.65571    1.000
    N3786    N        0.58914    0.98925    0.68678    1.000
    Si3787   Si       0.58758    0.97666    0.64314    1.000
    Si3788   Si       0.58714    0.91385    0.72463    1.000
    Si3789   Si       0.62556    0.97293    0.70173    1.000
    N3790    N        0.62121    0.93221    0.70594    1.000
    N3791    N        0.60747    0.85868    0.82036    1.000
    N3792    N        0.59262    0.77995    0.80861    1.000
    N3793    N        0.59015    0.83462    0.75576    1.000
    Si3794   Si       0.61265    0.86403    0.77765    1.000
    Si3795   Si       0.58232    0.79358    0.76730    1.000
    N3796    N        0.58814    0.81420    0.86732    1.000
    Si3797   Si       0.63272    0.76746    0.82329    1.000
    Si3798   Si       0.57651    0.77371    0.84950    1.000
    Si3799   Si       0.57254    0.84925    0.84506    1.000
    Si3800   Si       0.59506    0.98528    0.82554    1.000
    N3801    N        0.60121    0.94143    0.82558    1.000
    N3802    N        0.59333    0.90168    0.76614    1.000
    N3803    N        0.61907    0.99802    0.86042    1.000
    Si3804   Si       0.60721    0.00327    0.76043    1.000
    Si3805   Si       0.57531    0.93282    0.79225    1.000
    N3806    N        0.57660    0.97225    0.77337    1.000
    N3807    N        0.60641    0.77521    0.92359    1.000
    Si3808   Si       0.60919    0.76604    0.96647    1.000
    Si3809   Si       0.60543    0.81604    0.90758    1.000
    Si3810   Si       0.58403    0.91509    0.88722    1.000
    N3811    N        0.58635    0.95828    0.97876    1.000
    Si3812   Si       0.62691    0.96386    0.96534    1.000
    Si3813   Si       0.60195    0.98307    0.89671    1.000
    N3814    N        0.62699    0.95661    0.92160    1.000
    N3815    N        0.62424    0.90455    0.87518    1.000
    N3816    N        0.66812    0.07851    0.08348    1.000
    N3817    N        0.65328    0.04494    0.02975    1.000
    Si3818   Si       0.68349    0.05027    0.11352    1.000
    Si3819   Si       0.69222    0.03131    0.04669    1.000
    N3820    N        0.69005    0.13065    0.03904    1.000
    N3821    N        0.69232    0.01540    0.08884    1.000
    Si3822   Si       0.63468    0.07372    0.05589    1.000
    Si3823   Si       0.64680    0.14521    0.04762    1.000
    N3824    N        0.64769    0.14546    0.09138    1.000
    N3825    N        0.66156    0.18626    0.03184    1.000
    Si3826   Si       0.66858    0.21305    0.06835    1.000
    Si3827   Si       0.68424    0.15034    0.11120    1.000
    Si3828   Si       0.64076    0.21021    0.00115    1.000
    N3829    N        0.68934    0.19378    0.09989    1.000
    N3830    N        0.69313    0.24857    0.05677    1.000
    N3831    N        0.65633    0.24985    0.99709    1.000
    N3832    N        0.65627    0.03663    0.14387    1.000
    N3833    N        0.67833    0.03227    0.22337    1.000
    Si3834   Si       0.65639    0.03714    0.18711    1.000
    Si3835   Si       0.64055    0.09662    0.23075    1.000
    N3836    N        0.66367    0.13198    0.21763    1.000
    Si3837   Si       0.64681    0.15139    0.18039    1.000
    Si3838   Si       0.67588    0.25680    0.16632    1.000
    N3839    N        0.63971    0.24445    0.14722    1.000
    N3840    N        0.68181    0.15163    0.15443    1.000
    Si3841   Si       0.69019    0.16156    0.23809    1.000
    N3842    N        0.68594    0.25520    0.20786    1.000
    N3843    N        0.64202    0.19239    0.19174    1.000
    N3844    N        0.65941    0.08510    0.26879    1.000
    Si3845   Si       0.68482    0.11285    0.29555    1.000
    Si3846   Si       0.66883    0.08629    0.36787    1.000
    N3847    N        0.65148    0.12585    0.36883    1.000
    Si3848   Si       0.63938    0.01839    0.36632    1.000
    Si3849   Si       0.69412    0.06157    0.25140    1.000
    N3850    N        0.69435    0.09006    0.33123    1.000
    N3851    N        0.63386    0.06129    0.36384    1.000
    N3852    N        0.65271    0.14078    0.30073    1.000
    N3853    N        0.66064    0.21114    0.31552    1.000
    N3854    N        0.66562    0.19254    0.25444    1.000
    Si3855   Si       0.67658    0.22984    0.27636    1.000
    Si3856   Si       0.63753    0.18263    0.28957    1.000
    Si3857   Si       0.63473    0.20808    0.35062    1.000
    Si3858   Si       0.68080    0.13218    0.46934    1.000
    N3859    N        0.65750    0.09896    0.48784    1.000
    N3860    N        0.66957    0.04092    0.45340    1.000
    Si3861   Si       0.63795    0.06339    0.46948    1.000
    N3862    N        0.67578    0.01624    0.39071    1.000
    Si3863   Si       0.67678    0.22304    0.40680    1.000
    Si3864   Si       0.67784    0.15297    0.39147    1.000
    N3865    N        0.67057    0.17201    0.48775    1.000
    N3866    N        0.64064    0.21677    0.43124    1.000
    N3867    N        0.67175    0.19243    0.37515    1.000
    N3868    N        0.66325    0.14662    0.43141    1.000
    N3869    N        0.68967    0.24114    0.48702    1.000
    Si3870   Si       0.66241    0.08961    0.53153    1.000
    N3871    N        0.68482    0.05244    0.52868    1.000
    N3872    N        0.68398    0.12008    0.55155    1.000
    Si3873   Si       0.65630    0.01840    0.52769    1.000
    Si3874   Si       0.65505    0.14565    0.57246    1.000
    Si3875   Si       0.66993    0.21392    0.59702    1.000
    N3876    N        0.67743    0.23607    0.56112    1.000
    N3877    N        0.68502    0.17573    0.58639    1.000
    Si3878   Si       0.66569    0.24876    0.52230    1.000
    N3879    N        0.63654    0.13384    0.60836    1.000
    Si3880   Si       0.63573    0.18227    0.51007    1.000
    N3881    N        0.66263    0.06577    0.69953    1.000
    Si3882   Si       0.67086    0.06005    0.65573    1.000
    Si3883   Si       0.67215    0.03031    0.72602    1.000
    Si3884   Si       0.67595    0.09418    0.73088    1.000
    N3885    N        0.64481    0.03554    0.63144    1.000
    N3886    N        0.69117    0.09404    0.63541    1.000
    Si3887   Si       0.66357    0.12590    0.64393    1.000
    N3888    N        0.63582    0.10883    0.73574    1.000
    N3889    N        0.65868    0.23083    0.67382    1.000
    N3890    N        0.67745    0.16282    0.66219    1.000
    N3891    N        0.65839    0.18249    0.72614    1.000
    Si3892   Si       0.64977    0.18804    0.68189    1.000
    Si3893   Si       0.69361    0.25400    0.65858    1.000
    Si3894   Si       0.67376    0.09799    0.83989    1.000
    Si3895   Si       0.64618    0.02228    0.83351    1.000
    N3896    N        0.64354    0.06675    0.83075    1.000
    N3897    N        0.69102    0.06008    0.75187    1.000
    N3898    N        0.68674    0.00922    0.83717    1.000
    N3899    N        0.67171    0.13843    0.82254    1.000
    N3900    N        0.65054    0.23106    0.78184    1.000
    N3901    N        0.63861    0.19100    0.84681    1.000
    Si3902   Si       0.63393    0.19567    0.75870    1.000
    N3903    N        0.65558    0.10817    0.95498    1.000
    N3904    N        0.65848    0.04434    0.92329    1.000
    N3905    N        0.66882    0.10499    0.88282    1.000
    Si3906   Si       0.68589    0.07201    0.90541    1.000
    Si3907   Si       0.67593    0.01185    0.94551    1.000
    Si3908   Si       0.63719    0.11452    0.91374    1.000
    Si3909   Si       0.68875    0.25822    0.96725    1.000
    Si3910   Si       0.68571    0.18543    0.94896    1.000
    Si3911   Si       0.67842    0.19476    0.87016    1.000
    N3912    N        0.68985    0.17067    0.90694    1.000
    N3913    N        0.68123    0.23730    0.87524    1.000
    N3914    N        0.64456    0.19069    0.96231    1.000
    N3915    N        0.66888    0.35397    0.08600    1.000
    Si3916   Si       0.67674    0.27459    0.02720    1.000
    N3917    N        0.64394    0.29984    0.04099    1.000
    Si3918   Si       0.64093    0.37757    0.10887    1.000
    N3919    N        0.66533    0.47532    0.05512    1.000
    Si3920   Si       0.66000    0.45644    0.01587    1.000
    N3921    N        0.64205    0.41999    0.10387    1.000
    N3922    N        0.64237    0.42013    0.03377    1.000
    N3923    N        0.68763    0.50702    0.11296    1.000
    Si3924   Si       0.67439    0.28925    0.23354    1.000
    Si3925   Si       0.64151    0.31485    0.14718    1.000
    N3926    N        0.67870    0.29748    0.15849    1.000
    N3927    N        0.68391    0.45128    0.15625    1.000
    Si3928   Si       0.64492    0.44450    0.14114    1.000
    N3929    N        0.68372    0.39442    0.19153    1.000
    Si3930   Si       0.64247    0.38516    0.18168    1.000
    N3931    N        0.64523    0.31754    0.35809    1.000
    Si3932   Si       0.68818    0.33395    0.35696    1.000
    N3933    N        0.68822    0.36672    0.32882    1.000
    N3934    N        0.68917    0.27367    0.27208    1.000
    Si3935   Si       0.65965    0.39097    0.30874    1.000
    N3936    N        0.66419    0.41085    0.27019    1.000
    N3937    N        0.64725    0.41960    0.33747    1.000
    Si3938   Si       0.67889    0.42862    0.36711    1.000
    Si3939   Si       0.66998    0.50271    0.30654    1.000
    N3940    N        0.65231    0.34720    0.42505    1.000
    N3941    N        0.66378    0.37033    0.48349    1.000
    Si3942   Si       0.68541    0.34671    0.45060    1.000
    N3943    N        0.67198    0.25918    0.38459    1.000
    Si3944   Si       0.64556    0.38861    0.41510    1.000
    N3945    N        0.68413    0.40058    0.39946    1.000
    N3946    N        0.69497    0.44093    0.48298    1.000
    N3947    N        0.66822    0.46806    0.38124    1.000
    N3948    N        0.65060    0.49602    0.49554    1.000
    N3949    N        0.64910    0.34464    0.54564    1.000
    N3950    N        0.68085    0.28979    0.52243    1.000
    Si3951   Si       0.68478    0.32201    0.55025    1.000
    N3952    N        0.68377    0.30534    0.59029    1.000
    Si3953   Si       0.63677    0.34249    0.50445    1.000
    Si3954   Si       0.66240    0.47190    0.57651    1.000
    N3955    N        0.68038    0.44577    0.60573    1.000
    Si3956   Si       0.66514    0.46030    0.51089    1.000
    N3957    N        0.69241    0.45944    0.54627    1.000
    Si3958   Si       0.65175    0.37319    0.72144    1.000
    N3959    N        0.66893    0.29070    0.65553    1.000
    Si3960   Si       0.67576    0.32339    0.62853    1.000
    N3961    N        0.63927    0.34911    0.62537    1.000
    N3962    N        0.69340    0.36771    0.71126    1.000
    N3963    N        0.64028    0.50249    0.70581    1.000
    Si3964   Si       0.69983    0.44903    0.64438    1.000
    N3965    N        0.66202    0.44204    0.67181    1.000
    Si3966   Si       0.65561    0.48374    0.67193    1.000
    Si3967   Si       0.67407    0.26363    0.84013    1.000
    N3968    N        0.68823    0.29862    0.86427    1.000
    N3969    N        0.67140    0.29914    0.75511    1.000
    Si3970   Si       0.67410    0.38466    0.82072    1.000
    N3971    N        0.66278    0.38662    0.86182    1.000
    N3972    N        0.67485    0.47695    0.76364    1.000
    Si3973   Si       0.65622    0.43900    0.77638    1.000
    N3974    N        0.68394    0.42416    0.80586    1.000
    N3975    N        0.64688    0.48317    0.83910    1.000
    Si3976   Si       0.68658    0.49344    0.84929    1.000
    N3977    N        0.66263    0.41064    0.74453    1.000
    N3978    N        0.64146    0.36080    0.91975    1.000
    Si3979   Si       0.65723    0.34447    0.95652    1.000
    N3980    N        0.66736    0.27407    0.93358    1.000
    Si3981   Si       0.67790    0.37884    0.90139    1.000
    Si3982   Si       0.69692    0.27171    0.89965    1.000
    N3983    N        0.65801    0.38046    0.98211    1.000
    Si3984   Si       0.69022    0.40912    0.97256    1.000
    N3985    N        0.69342    0.45007    0.99089    1.000
    N3986    N        0.68550    0.41177    0.92797    1.000
    Si3987   Si       0.64866    0.54451    0.04525    1.000
    Si3988   Si       0.67008    0.61798    0.04469    1.000
    N3989    N        0.64132    0.58924    0.05142    1.000
    N3990    N        0.69081    0.53896    0.04869    1.000
    N3991    N        0.67834    0.63157    0.00271    1.000
    Si3992   Si       0.64421    0.51766    0.12055    1.000
    Si3993   Si       0.63991    0.68622    0.06175    1.000
    N3994    N        0.65143    0.72730    0.06013    1.000
    N3995    N        0.67178    0.65633    0.06671    1.000
    Si3996   Si       0.68743    0.66054    0.10686    1.000
    Si3997   Si       0.68727    0.73607    0.08575    1.000
    N3998    N        0.69090    0.70275    0.11390    1.000
    Si3999   Si       0.67345    0.61617    0.16527    1.000
    N4000    N        0.65666    0.54127    0.15429    1.000
    Si4001   Si       0.65090    0.55731    0.19463    1.000
    N4002    N        0.64098    0.59962    0.18819    1.000
    N4003    N        0.68932    0.55998    0.21528    1.000
    N4004    N        0.69223    0.72123    0.18604    1.000
    Si4005   Si       0.66325    0.68793    0.19172    1.000
    N4006    N        0.68578    0.65007    0.18891    1.000
    N4007    N        0.65584    0.63544    0.12891    1.000
    N4008    N        0.64991    0.69263    0.23399    1.000
    N4009    N        0.66571    0.53679    0.27801    1.000
    Si4010   Si       0.66774    0.59948    0.30318    1.000
    N4011    N        0.66479    0.58213    0.34400    1.000
    Si4012   Si       0.67823    0.54701    0.36592    1.000
    Si4013   Si       0.65423    0.61805    0.36610    1.000
    N4014    N        0.69497    0.51578    0.34004    1.000
    N4015    N        0.67741    0.63868    0.31949    1.000
    N4016    N        0.66541    0.70267    0.30690    1.000
    Si4017   Si       0.68340    0.69795    0.26214    1.000
    N4018    N        0.66247    0.73981    0.35729    1.000
    Si4019   Si       0.63626    0.73315    0.32129    1.000
    Si4020   Si       0.63753    0.66576    0.31876    1.000
    N4021    N        0.64315    0.53045    0.38370    1.000
    Si4022   Si       0.67621    0.52528    0.47384    1.000
    N4023    N        0.64528    0.54259    0.45127    1.000
    N4024    N        0.69086    0.63111    0.38486    1.000
    Si4025   Si       0.64977    0.73965    0.39767    1.000
    N4026    N        0.67063    0.73203    0.43706    1.000
    Si4027   Si       0.68275    0.64723    0.42555    1.000
    N4028    N        0.64364    0.65975    0.43415    1.000
    Si4029   Si       0.64593    0.74654    0.47071    1.000
    Si4030   Si       0.67350    0.57158    0.53258    1.000
    N4031    N        0.66791    0.61162    0.51718    1.000
    Si4032   Si       0.68489    0.60927    0.59201    1.000
    N4033    N        0.64325    0.61804    0.58084    1.000
    N4034    N        0.67058    0.51284    0.58921    1.000
    Si4035   Si       0.64087    0.63884    0.54258    1.000
    Si4036   Si       0.67759    0.74649    0.59016    1.000
    N4037    N        0.65181    0.67987    0.55413    1.000
    Si4038   Si       0.65997    0.67231    0.59466    1.000
    N4039    N        0.66052    0.73462    0.50960    1.000
    N4040    N        0.67192    0.71031    0.61471    1.000
    N4041    N        0.63947    0.75485    0.57269    1.000
    Si4042   Si       0.63692    0.72027    0.54401    1.000
    Si4043   Si       0.68283    0.56836    0.65554    1.000
    N4044    N        0.64420    0.55101    0.64700    1.000
    N4045    N        0.68819    0.60408    0.63438    1.000
    Si4046   Si       0.65819    0.51228    0.74415    1.000
    N4047    N        0.68579    0.66434    0.66766    1.000
    N4048    N        0.64343    0.71394    0.73074    1.000
    Si4049   Si       0.66687    0.70093    0.65631    1.000
    Si4050   Si       0.68553    0.72283    0.72262    1.000
    N4051    N        0.68627    0.73106    0.68154    1.000
    Si4052   Si       0.65055    0.56973    0.78819    1.000
    N4053    N        0.67382    0.55025    0.75696    1.000
    N4054    N        0.68159    0.58251    0.81262    1.000
    Si4055   Si       0.64490    0.63951    0.75576    1.000
    N4056    N        0.65497    0.69916    0.84719    1.000
    Si4057   Si       0.66248    0.69981    0.80426    1.000
    N4058    N        0.64419    0.73998    0.79255    1.000
    N4059    N        0.68652    0.63881    0.74670    1.000
    N4060    N        0.68143    0.62044    0.88019    1.000
    N4061    N        0.66517    0.61383    0.94122    1.000
    N4062    N        0.67868    0.51732    0.88543    1.000
    Si4063   Si       0.64700    0.60663    0.90117    1.000
    Si4064   Si       0.64088    0.52765    0.90427    1.000
    N4065    N        0.64029    0.52812    0.94660    1.000
    Si4066   Si       0.66679    0.72264    0.95355    1.000
    Si4067   Si       0.68238    0.71616    0.87499    1.000
    Si4068   Si       0.65837    0.64815    0.96717    1.000
    N4069    N        0.68544    0.68416    0.96132    1.000
    N4070    N        0.65891    0.72512    0.91097    1.000
    N4071    N        0.69428    0.75410    0.97000    1.000
    Si4072   Si       0.66373    0.80959    0.06536    1.000
    N4073    N        0.67074    0.84700    0.08685    1.000
    N4074    N        0.68660    0.78173    0.09080    1.000
    N4075    N        0.68644    0.79804    0.03030    1.000
    Si4076   Si       0.63933    0.87662    0.08248    1.000
    N4077    N        0.66751    0.94954    0.05707    1.000
    Si4078   Si       0.65192    0.95232    0.09967    1.000
    Si4079   Si       0.63737    0.93208    0.03237    1.000
    N4080    N        0.63483    0.91474    0.10504    1.000
    N4081    N        0.65426    0.84572    0.18925    1.000
    Si4082   Si       0.66574    0.80184    0.19305    1.000
    N4083    N        0.66143    0.78541    0.15442    1.000
    N4084    N        0.64221    0.78346    0.22401    1.000
    Si4085   Si       0.69068    0.86961    0.17816    1.000
    Si4086   Si       0.67999    0.92815    0.22929    1.000
    N4087    N        0.68187    0.95819    0.12962    1.000
    N4088    N        0.67862    0.90776    0.19276    1.000
    Si4089   Si       0.66756    0.99426    0.24268    1.000
    N4090    N        0.68057    0.96721    0.21298    1.000
    N4091    N        0.67753    0.83814    0.34678    1.000
    Si4092   Si       0.64769    0.79018    0.26569    1.000
    N4093    N        0.68587    0.80234    0.28188    1.000
    N4094    N        0.69250    0.87746    0.29070    1.000
    Si4095   Si       0.63530    0.85277    0.34448    1.000
    N4096    N        0.64576    0.00084    0.32757    1.000
    N4097    N        0.66332    0.93271    0.32376    1.000
    Si4098   Si       0.65787    0.90120    0.29427    1.000
    Si4099   Si       0.67895    0.97385    0.32003    1.000
    N4100    N        0.64748    0.92224    0.25771    1.000
    Si4101   Si       0.66096    0.91925    0.36460    1.000
    N4102    N        0.68996    0.98426    0.27798    1.000
    N4103    N        0.68535    0.81725    0.41928    1.000
    Si4104   Si       0.64476    0.80880    0.43053    1.000
    Si4105   Si       0.63571    0.88149    0.41944    1.000
    N4106    N        0.63682    0.88700    0.37626    1.000
    Si4107   Si       0.66076    0.99737    0.45823    1.000
    N4108    N        0.69155    0.97541    0.43777    1.000
    Si4109   Si       0.68757    0.97452    0.39503    1.000
    N4110    N        0.64990    0.95205    0.39074    1.000
    N4111    N        0.67288    0.88982    0.43783    1.000
    Si4112   Si       0.67924    0.88440    0.48018    1.000
    Si4113   Si       0.64147    0.84866    0.53778    1.000
    N4114    N        0.68492    0.83914    0.54163    1.000
    N4115    N        0.64130    0.87326    0.50056    1.000
    N4116    N        0.63758    0.82165    0.60083    1.000
    Si4117   Si       0.68103    0.82070    0.61743    1.000
    N4118    N        0.67818    0.87433    0.60576    1.000
    Si4119   Si       0.67609    0.94737    0.52264    1.000
    N4120    N        0.66211    0.00035    0.56600    1.000
    N4121    N        0.63820    0.94062    0.54210    1.000
    N4122    N        0.66706    0.98548    0.50020    1.000
    N4123    N        0.69366    0.97001    0.61630    1.000
    N4124    N        0.68400    0.77752    0.62192    1.000
    Si4125   Si       0.66422    0.83050    0.69876    1.000
    N4126    N        0.67868    0.83617    0.65790    1.000
    N4127    N        0.65045    0.87158    0.70263    1.000
    Si4128   Si       0.66618    0.87679    0.64782    1.000
    N4129    N        0.69236    0.82382    0.72978    1.000
    N4130    N        0.63890    0.00363    0.73195    1.000
    N4131    N        0.68506    0.91199    0.66520    1.000
    Si4132   Si       0.66039    0.91323    0.70152    1.000
    Si4133   Si       0.69451    0.96897    0.69452    1.000
    N4134    N        0.65863    0.97969    0.67367    1.000
    Si4135   Si       0.66049    0.99334    0.63179    1.000
    N4136    N        0.68018    0.94441    0.72778    1.000
    N4137    N        0.65977    0.79936    0.83199    1.000
    Si4138   Si       0.64869    0.84215    0.82517    1.000
    N4139    N        0.65676    0.85141    0.78277    1.000
    N4140    N        0.67288    0.86107    0.85654    1.000
    Si4141   Si       0.69860    0.85191    0.76326    1.000
    N4142    N        0.65765    0.92203    0.79838    1.000
    N4143    N        0.67214    0.94727    0.85979    1.000
    Si4144   Si       0.68823    0.92827    0.76795    1.000
    Si4145   Si       0.64025    0.92393    0.83823    1.000
    Si4146   Si       0.65344    0.83358    0.95552    1.000
    Si4147   Si       0.65404    0.87546    0.89286    1.000
    N4148    N        0.64183    0.86938    0.97631    1.000
    Si4149   Si       0.68045    0.79003    0.98720    1.000
    N4150    N        0.63911    0.79743    0.97573    1.000
    N4151    N        0.64036    0.83909    0.91547    1.000
    Si4152   Si       0.66616    0.90185    0.96577    1.000
    N4153    N        0.69127    0.97694    0.92224    1.000
    N4154    N        0.64887    0.93472    0.98795    1.000
    N4155    N        0.67211    0.90659    0.91989    1.000
    Si4156   Si       0.66522    0.94704    0.90202    1.000
    N4157    N        0.64434    0.00126    0.97222    1.000
    N4158    N        0.71974    0.06527    0.04511    1.000
    N4159    N        0.71365    0.12324    0.10219    1.000
    Si4160   Si       0.69964    0.10016    0.06653    1.000
    Si4161   Si       0.75336    0.06963    0.01585    1.000
    N4162    N        0.73339    0.19258    0.01774    1.000
    Si4163   Si       0.70138    0.16607    0.01832    1.000
    N4164    N        0.74587    0.23231    0.09984    1.000
    N4165    N        0.72231    0.06254    0.12924    1.000
    N4166    N        0.73866    0.11540    0.17474    1.000
    Si4167   Si       0.73688    0.10297    0.13250    1.000
    N4168    N        0.72392    0.08554    0.23561    1.000
    Si4169   Si       0.75492    0.08606    0.20336    1.000
    N4170    N        0.74616    0.17240    0.14306    1.000
    Si4171   Si       0.72145    0.15584    0.17475    1.000
    N4172    N        0.70788    0.23015    0.15550    1.000
    Si4173   Si       0.72406    0.20473    0.12434    1.000
    N4174    N        0.71653    0.18082    0.20890    1.000
    Si4175   Si       0.71496    0.22290    0.19998    1.000
    N4176    N        0.71431    0.04437    0.28568    1.000
    Si4177   Si       0.72718    0.06306    0.32262    1.000
    N4178    N        0.74429    0.04065    0.35416    1.000
    Si4179   Si       0.75063    0.11168    0.26194    1.000
    N4180    N        0.71323    0.13822    0.27081    1.000
    N4181    N        0.71969    0.23725    0.33906    1.000
    N4182    N        0.72692    0.17152    0.33275    1.000
    Si4183   Si       0.73721    0.17014    0.28956    1.000
    N4184    N        0.72352    0.20876    0.27864    1.000
    Si4185   Si       0.74795    0.23315    0.30674    1.000
    Si4186   Si       0.75069    0.16354    0.36789    1.000
    Si4187   Si       0.69581    0.20060    0.34056    1.000
    N4188    N        0.69545    0.07989    0.40314    1.000
    N4189    N        0.74073    0.02929    0.42884    1.000
    Si4190   Si       0.72824    0.10903    0.41679    1.000
    N4191    N        0.72170    0.12175    0.45858    1.000
    Si4192   Si       0.69866    0.04015    0.41982    1.000
    Si4193   Si       0.74620    0.22848    0.41854    1.000
    Si4194   Si       0.70042    0.20134    0.47410    1.000
    N4195    N        0.72073    0.14204    0.39316    1.000
    N4196    N        0.70840    0.20999    0.43259    1.000
    Si4197   Si       0.72592    0.11464    0.55930    1.000
    Si4198   Si       0.72395    0.04771    0.54439    1.000
    N4199    N        0.72758    0.07563    0.57619    1.000
    N4200    N        0.73522    0.01039    0.56326    1.000
    N4201    N        0.73901    0.13216    0.59701    1.000
    Si4202   Si       0.72743    0.17344    0.59676    1.000
    N4203    N        0.74954    0.13765    0.52586    1.000
    N4204    N        0.69668    0.24059    0.61890    1.000
    N4205    N        0.74926    0.19948    0.56804    1.000
    N4206    N        0.73657    0.19284    0.49582    1.000
    Si4207   Si       0.73012    0.09198    0.61685    1.000
    N4208    N        0.74102    0.06179    0.70444    1.000
    Si4209   Si       0.73267    0.02277    0.68504    1.000
    N4210    N        0.70521    0.03165    0.65471    1.000
    N4211    N        0.73967    0.12593    0.67079    1.000
    N4212    N        0.70170    0.12649    0.73931    1.000
    N4213    N        0.73234    0.24733    0.67639    1.000
    N4214    N        0.73604    0.18612    0.63714    1.000
    Si4215   Si       0.74799    0.23168    0.71959    1.000
    N4216    N        0.71562    0.24936    0.74703    1.000
    Si4217   Si       0.69891    0.16950    0.73605    1.000
    Si4218   Si       0.72097    0.16387    0.67027    1.000
    N4219    N        0.72527    0.18544    0.70687    1.000
    Si4220   Si       0.71780    0.03828    0.84589    1.000
    N4221    N        0.71262    0.07812    0.83278    1.000
    Si4222   Si       0.73963    0.12121    0.76093    1.000
    Si4223   Si       0.74713    0.10558    0.83185    1.000
    N4224    N        0.74349    0.01491    0.77023    1.000
    Si4225   Si       0.73381    0.05183    0.74660    1.000
    N4226    N        0.73626    0.13450    0.80121    1.000
    N4227    N        0.71292    0.18944    0.84424    1.000
    Si4228   Si       0.70804    0.16452    0.81138    1.000
    N4229    N        0.69999    0.18791    0.77630    1.000
    N4230    N        0.70694    0.25586    0.81286    1.000
    Si4231   Si       0.69361    0.23236    0.77853    1.000
    N4232    N        0.74141    0.12470    0.87024    1.000
    N4233    N        0.71693    0.02683    0.95503    1.000
    Si4234   Si       0.69840    0.11334    0.96606    1.000
    Si4235   Si       0.74165    0.03425    0.91849    1.000
    N4236    N        0.71452    0.04414    0.88709    1.000
    N4237    N        0.73389    0.09260    0.98274    1.000
    N4238    N        0.71404    0.10127    0.92534    1.000
    Si4239   Si       0.70571    0.13207    0.89410    1.000
    Si4240   Si       0.74469    0.21491    0.98460    1.000
    N4241    N        0.71103    0.22178    0.95859    1.000
    N4242    N        0.70209    0.15580    0.97543    1.000
    Si4243   Si       0.70829    0.33667    0.07725    1.000
    N4244    N        0.71543    0.29966    0.09979    1.000
    N4245    N        0.73813    0.36281    0.09362    1.000
    N4246    N        0.70868    0.33571    0.03400    1.000
    Si4247   Si       0.72949    0.26314    0.07743    1.000
    N4248    N        0.70898    0.28069    0.99758    1.000
    Si4249   Si       0.72124    0.34610    0.99413    1.000
    Si4250   Si       0.75017    0.28605    0.00924    1.000
    N4251    N        0.73363    0.48875    0.05207    1.000
    N4252    N        0.73876    0.46454    0.11407    1.000
    Si4253   Si       0.69655    0.50171    0.07057    1.000
    N4254    N        0.74926    0.41835    0.05144    1.000
    N4255    N        0.69850    0.32347    0.22181    1.000
    N4256    N        0.74406    0.36727    0.22089    1.000
    Si4257   Si       0.70886    0.35828    0.19550    1.000
    Si4258   Si       0.71834    0.31149    0.14225    1.000
    N4259    N        0.71616    0.35110    0.15395    1.000
    Si4260   Si       0.74748    0.37556    0.13464    1.000
    Si4261   Si       0.73665    0.33275    0.24216    1.000
    N4262    N        0.71689    0.44298    0.22624    1.000
    N4263    N        0.74682    0.40930    0.16793    1.000
    N4264    N        0.74384    0.47011    0.17660    1.000
    Si4265   Si       0.71414    0.48431    0.14456    1.000
    Si4266   Si       0.71032    0.42994    0.18474    1.000
    N4267    N        0.72539    0.33583    0.28290    1.000
    Si4268   Si       0.71666    0.29549    0.29657    1.000
    Si4269   Si       0.72526    0.36985    0.30604    1.000
    N4270    N        0.70451    0.29875    0.33731    1.000
    Si4271   Si       0.70860    0.26812    0.36599    1.000
    N4272    N        0.72665    0.41218    0.29276    1.000
    N4273    N        0.71931    0.43895    0.35418    1.000
    Si4274   Si       0.70067    0.43684    0.26704    1.000
    Si4275   Si       0.73713    0.49919    0.28659    1.000
    Si4276   Si       0.70570    0.48078    0.36380    1.000
    N4277    N        0.69770    0.47555    0.28887    1.000
    Si4278   Si       0.75080    0.42200    0.32959    1.000
    N4279    N        0.72259    0.33637    0.38878    1.000
    Si4280   Si       0.73349    0.30694    0.41989    1.000
    Si4281   Si       0.70519    0.28141    0.48587    1.000
    N4282    N        0.73302    0.26730    0.40182    1.000
    N4283    N        0.70197    0.30700    0.45027    1.000
    N4284    N        0.71595    0.37810    0.44955    1.000
    N4285    N        0.70444    0.50372    0.44987    1.000
    N4286    N        0.75228    0.46621    0.49015    1.000
    Si4287   Si       0.69949    0.39790    0.48626    1.000
    N4288    N        0.73887    0.44466    0.42611    1.000
    Si4289   Si       0.72188    0.46613    0.46072    1.000
    Si4290   Si       0.72633    0.40221    0.41535    1.000
    N4291    N        0.73643    0.49684    0.38762    1.000
    N4292    N        0.72573    0.33673    0.54324    1.000
    Si4293   Si       0.69950    0.26594    0.58378    1.000
    N4294    N        0.73903    0.27072    0.56525    1.000
    Si4295   Si       0.74013    0.37675    0.55002    1.000
    N4296    N        0.74746    0.28397    0.49703    1.000
    N4297    N        0.72421    0.39744    0.58445    1.000
    N4298    N        0.72506    0.40111    0.51916    1.000
    Si4299   Si       0.72048    0.44068    0.58617    1.000
    Si4300   Si       0.73069    0.44412    0.52127    1.000
    N4301    N        0.75488    0.45261    0.55911    1.000
    Si4302   Si       0.75454    0.28550    0.68588    1.000
    N4303    N        0.72363    0.30826    0.70219    1.000
    N4304    N        0.70907    0.34678    0.64346    1.000
    Si4305   Si       0.72311    0.34674    0.68759    1.000
    Si4306   Si       0.73158    0.37864    0.62362    1.000
    N4307    N        0.73886    0.46497    0.62076    1.000
    Si4308   Si       0.75233    0.41105    0.68038    1.000
    N4309    N        0.73854    0.42415    0.71884    1.000
    N4310    N        0.69828    0.48859    0.66563    1.000
    Si4311   Si       0.70469    0.40112    0.73583    1.000
    N4312    N        0.72198    0.41069    0.65052    1.000
    Si4313   Si       0.73551    0.35004    0.78751    1.000
    N4314    N        0.73993    0.31180    0.76761    1.000
    Si4315   Si       0.71479    0.33083    0.85560    1.000
    N4316    N        0.75017    0.31136    0.83635    1.000
    Si4317   Si       0.74794    0.26855    0.82599    1.000
    N4318    N        0.70294    0.35237    0.81994    1.000
    Si4319   Si       0.71042    0.29298    0.74185    1.000
    N4320    N        0.72447    0.38796    0.77006    1.000
    Si4321   Si       0.71403    0.49081    0.77729    1.000
    Si4322   Si       0.72571    0.42352    0.79796    1.000
    N4323    N        0.74057    0.45699    0.77673    1.000
    N4324    N        0.70981    0.46066    0.86465    1.000
    Si4325   Si       0.75017    0.44208    0.86022    1.000
    N4326    N        0.73572    0.28918    0.91213    1.000
    N4327    N        0.71350    0.35356    0.89418    1.000
    Si4328   Si       0.72981    0.33127    0.92630    1.000
    N4329    N        0.70008    0.33747    0.95726    1.000
    Si4330   Si       0.70933    0.44156    0.90591    1.000
    Si4331   Si       0.72783    0.47231    0.97730    1.000
    N4332    N        0.73038    0.46537    0.93421    1.000
    N4333    N        0.72475    0.38957    0.99019    1.000
    N4334    N        0.74198    0.41478    0.89311    1.000
    N4335    N        0.72228    0.56421    0.10414    1.000
    N4336    N        0.71213    0.60788    0.05108    1.000
    Si4337   Si       0.72170    0.56739    0.06190    1.000
    Si4338   Si       0.72082    0.62340    0.01040    1.000
    Si4339   Si       0.74639    0.63905    0.06889    1.000
    N4340    N        0.72245    0.73877    0.05857    1.000
    N4341    N        0.72688    0.63877    0.11341    1.000
    N4342    N        0.74955    0.65078    0.02687    1.000
    Si4343   Si       0.73767    0.59762    0.12617    1.000
    N4344    N        0.72221    0.52414    0.16304    1.000
    Si4345   Si       0.72485    0.57512    0.19424    1.000
    N4346    N        0.70777    0.59004    0.15708    1.000
    N4347    N        0.73511    0.61118    0.21508    1.000
    Si4348   Si       0.69750    0.54710    0.13521    1.000
    Si4349   Si       0.71274    0.71695    0.14665    1.000
    Si4350   Si       0.71763    0.65087    0.21815    1.000
    Si4351   Si       0.71239    0.75023    0.21139    1.000
    N4352    N        0.74940    0.69626    0.15373    1.000
    N4353    N        0.72544    0.75705    0.13728    1.000
    N4354    N        0.73701    0.53273    0.26003    1.000
    N4355    N        0.70214    0.59300    0.27896    1.000
    Si4356   Si       0.69875    0.55495    0.25802    1.000
    Si4357   Si       0.72496    0.63081    0.28483    1.000
    N4358    N        0.74256    0.63625    0.32627    1.000
    N4359    N        0.71729    0.69220    0.35808    1.000
    Si4360   Si       0.70944    0.65048    0.34812    1.000
    N4361    N        0.71026    0.66446    0.25881    1.000
    N4362    N        0.72580    0.74774    0.31629    1.000
    N4363    N        0.69935    0.73835    0.25197    1.000
    Si4364   Si       0.69624    0.71993    0.33383    1.000
    Si4365   Si       0.73127    0.52533    0.42189    1.000
    Si4366   Si       0.72091    0.59005    0.42300    1.000
    N4367    N        0.74201    0.56087    0.44855    1.000
    Si4368   Si       0.73836    0.56173    0.49115    1.000
    N4369    N        0.70494    0.55694    0.39839    1.000
    N4370    N        0.69990    0.61688    0.45170    1.000
    Si4371   Si       0.70332    0.62425    0.49483    1.000
    Si4372   Si       0.71208    0.71901    0.44012    1.000
    N4373    N        0.71465    0.67715    0.43236    1.000
    Si4374   Si       0.75324    0.65601    0.42979    1.000
    N4375    N        0.72601    0.72836    0.48125    1.000
    N4376    N        0.73723    0.73592    0.40956    1.000
    Si4377   Si       0.70649    0.53642    0.58873    1.000
    N4378    N        0.73974    0.60154    0.50758    1.000
    N4379    N        0.74447    0.52245    0.57355    1.000
    N4380    N        0.69614    0.57394    0.56957    1.000
    N4381    N        0.69657    0.55141    0.50157    1.000
    Si4382   Si       0.74299    0.65804    0.59244    1.000
    N4383    N        0.70984    0.74040    0.56146    1.000
    Si4384   Si       0.74511    0.73860    0.58602    1.000
    N4385    N        0.70007    0.65031    0.59280    1.000
    N4386    N        0.71306    0.66592    0.50902    1.000
    Si4387   Si       0.70187    0.74231    0.51817    1.000
    Si4388   Si       0.74565    0.69202    0.49744    1.000
    N4389    N        0.70075    0.55418    0.69490    1.000
    N4390    N        0.71269    0.54473    0.63198    1.000
    Si4391   Si       0.71296    0.55456    0.73693    1.000
    Si4392   Si       0.72065    0.52431    0.67003    1.000
    N4393    N        0.72795    0.62701    0.69276    1.000
    N4394    N        0.75113    0.57774    0.74127    1.000
    Si4395   Si       0.71266    0.63523    0.65017    1.000
    Si4396   Si       0.69797    0.65375    0.70824    1.000
    N4397    N        0.75249    0.64077    0.63081    1.000
    N4398    N        0.71296    0.69044    0.72624    1.000
    N4399    N        0.70735    0.75527    0.74100    1.000
    N4400    N        0.73973    0.74340    0.62839    1.000
    Si4401   Si       0.71413    0.55508    0.82145    1.000
    N4402    N        0.72638    0.55846    0.86224    1.000
    N4403    N        0.70655    0.51264    0.81345    1.000
    N4404    N        0.74995    0.62653    0.85891    1.000
    N4405    N        0.75353    0.57273    0.81047    1.000
    N4406    N        0.73067    0.51556    0.74377    1.000
    Si4407   Si       0.71626    0.66662    0.76349    1.000
    Si4408   Si       0.72426    0.74028    0.77798    1.000
    N4409    N        0.70484    0.70015    0.78950    1.000
    N4410    N        0.70250    0.75413    0.86603    1.000
    N4411    N        0.73469    0.51559    0.98477    1.000
    Si4412   Si       0.71513    0.53832    0.89616    1.000
    N4413    N        0.73737    0.60183    0.97714    1.000
    Si4414   Si       0.74519    0.54119    0.95380    1.000
    N4415    N        0.71210    0.56079    0.93153    1.000
    Si4416   Si       0.70880    0.60417    0.94347    1.000
    N4417    N        0.75433    0.52040    0.91297    1.000
    Si4418   Si       0.71526    0.64423    0.88199    1.000
    N4419    N        0.73317    0.71982    0.92789    1.000
    N4420    N        0.71497    0.68674    0.87508    1.000
    Si4421   Si       0.72562    0.68125    0.94656    1.000
    N4422    N        0.72753    0.64220    0.92459    1.000
    Si4423   Si       0.73275    0.75631    0.95039    1.000
    Si4424   Si       0.75011    0.70901    0.88844    1.000
    Si4425   Si       0.70586    0.85898    0.11060    1.000
    Si4426   Si       0.71602    0.78232    0.05624    1.000
    N4427    N        0.73805    0.87235    0.08419    1.000
    N4428    N        0.74231    0.85680    0.02041    1.000
    N4429    N        0.73007    0.95507    0.08070    1.000
    N4430    N        0.72744    0.92150    0.03072    1.000
    Si4431   Si       0.71160    0.98229    0.10966    1.000
    Si4432   Si       0.70771    0.95686    0.04242    1.000
    N4433    N        0.70714    0.99643    0.02371    1.000
    Si4434   Si       0.73922    0.89363    0.00075    1.000
    Si4435   Si       0.74796    0.91492    0.07005    1.000
    Si4436   Si       0.73684    0.82125    0.18324    1.000
    N4437    N        0.71438    0.82917    0.14451    1.000
    N4438    N        0.70738    0.79271    0.20083    1.000
    N4439    N        0.73261    0.86200    0.19609    1.000
    Si4440   Si       0.69833    0.79084    0.13147    1.000
    Si4441   Si       0.69688    0.92888    0.15902    1.000
    N4442    N        0.74245    0.99618    0.13543    1.000
    N4443    N        0.71873    0.92527    0.24655    1.000
    N4444    N        0.74750    0.99357    0.23378    1.000
    Si4445   Si       0.74411    0.95121    0.22212    1.000
    N4446    N        0.73225    0.94298    0.17797    1.000
    N4447    N        0.69623    0.89029    0.13856    1.000
    Si4448   Si       0.71201    0.76709    0.27971    1.000
    N4449    N        0.73834    0.83084    0.31269    1.000
    Si4450   Si       0.69635    0.83841    0.30601    1.000
    Si4451   Si       0.72776    0.89725    0.27729    1.000
    Si4452   Si       0.73403    0.93180    0.35357    1.000
    N4453    N        0.70663    0.97210    0.35518    1.000
    N4454    N        0.74214    0.92197    0.31142    1.000
    Si4455   Si       0.72815    0.00453    0.27345    1.000
    N4456    N        0.75424    0.98994    0.30247    1.000
    N4457    N        0.73340    0.80111    0.37499    1.000
    Si4458   Si       0.74603    0.76854    0.48168    1.000
    Si4459   Si       0.72128    0.83050    0.44247    1.000
    N4460    N        0.73031    0.85880    0.40904    1.000
    N4461    N        0.74505    0.79449    0.44653    1.000
    N4462    N        0.70800    0.85127    0.47984    1.000
    Si4463   Si       0.70210    0.83055    0.38115    1.000
    Si4464   Si       0.75220    0.77662    0.40578    1.000
    N4465    N        0.73572    0.92116    0.44066    1.000
    N4466    N        0.70021    0.91205    0.37662    1.000
    Si4467   Si       0.71010    0.89738    0.41565    1.000
    N4468    N        0.74610    0.97772    0.48219    1.000
    Si4469   Si       0.71431    0.95222    0.46660    1.000
    N4470    N        0.69313    0.92346    0.49102    1.000
    N4471    N        0.72270    0.82546    0.59744    1.000
    Si4472   Si       0.71481    0.82526    0.51392    1.000
    Si4473   Si       0.70564    0.86003    0.57557    1.000
    N4474    N        0.71310    0.78394    0.50554    1.000
    N4475    N        0.73536    0.88264    0.55632    1.000
    N4476    N        0.70601    0.94714    0.55342    1.000
    Si4477   Si       0.74007    0.92362    0.56889    1.000
    N4478    N        0.74198    0.92154    0.61210    1.000
    Si4479   Si       0.70228    0.98386    0.57435    1.000
    Si4480   Si       0.72103    0.79269    0.72173    1.000
    N4481    N        0.73017    0.78296    0.68045    1.000
    Si4482   Si       0.70449    0.75905    0.65525    1.000
    N4483    N        0.75059    0.94744    0.73509    1.000
    Si4484   Si       0.71226    0.93703    0.63960    1.000
    N4485    N        0.70679    0.00497    0.71893    1.000
    N4486    N        0.72904    0.95913    0.67247    1.000
    Si4487   Si       0.74903    0.90578    0.74751    1.000
    N4488    N        0.71754    0.77751    0.79986    1.000
    N4489    N        0.72722    0.80949    0.85805    1.000
    N4490    N        0.72909    0.84638    0.79550    1.000
    Si4491   Si       0.74585    0.80829    0.78690    1.000
    Si4492   Si       0.69879    0.78486    0.83688    1.000
    Si4493   Si       0.71691    0.85174    0.86327    1.000
    N4494    N        0.73697    0.88812    0.84909    1.000
    N4495    N        0.71361    0.95824    0.78891    1.000
    N4496    N        0.70675    0.89236    0.75197    1.000
    N4497    N        0.73956    0.95724    0.84827    1.000
    Si4498   Si       0.72604    0.98026    0.75064    1.000
    Si4499   Si       0.69904    0.96726    0.83258    1.000
    Si4500   Si       0.75304    0.92119    0.87029    1.000
    N4501    N        0.69528    0.82093    0.96127    1.000
    Si4502   Si       0.72883    0.82799    0.93563    1.000
    N4503    N        0.74201    0.78716    0.92213    1.000
    Si4504   Si       0.74004    0.77518    0.88080    1.000
    N4505    N        0.71888    0.85748    0.90614    1.000
    N4506    N        0.74692    0.96853    0.96946    1.000
    Si4507   Si       0.71492    0.89612    0.92555    1.000
    Si4508   Si       0.73398    0.96924    0.92719    1.000
    N4509    N        0.70949    0.89519    0.96934    1.000
    N4510    N        0.73583    0.92961    0.90989    1.000
    Si4511   Si       0.73242    0.00530    0.99035    1.000
    N4512    N        0.79021    0.09243    0.01706    1.000
    N4513    N        0.76684    0.02809    0.01133    1.000
    N4514    N        0.79557    0.17712    0.09030    1.000
    Si4515   Si       0.78740    0.21715    0.10451    1.000
    N4516    N        0.81127    0.24517    0.08071    1.000
    N4517    N        0.77910    0.11451    0.12153    1.000
    N4518    N        0.79297    0.04703    0.11836    1.000
    N4519    N        0.76196    0.04667    0.18422    1.000
    N4520    N        0.78267    0.09908    0.23269    1.000
    Si4521   Si       0.80769    0.08478    0.13478    1.000
    Si4522   Si       0.77970    0.01262    0.21103    1.000
    Si4523   Si       0.75590    0.03633    0.14017    1.000
    N4524    N        0.81253    0.02029    0.24069    1.000
    N4525    N        0.79931    0.21217    0.14585    1.000
    Si4526   Si       0.79702    0.22631    0.18710    1.000
    Si4527   Si       0.78675    0.15780    0.12951    1.000
    N4528    N        0.75710    0.23636    0.20184    1.000
    Si4529   Si       0.78592    0.12043    0.31607    1.000
    N4530    N        0.80294    0.02707    0.31914    1.000
    N4531    N        0.75700    0.09274    0.30369    1.000
    N4532    N        0.78167    0.13738    0.35587    1.000
    N4533    N        0.77494    0.14913    0.27976    1.000
    N4534    N        0.78635    0.21619    0.31908    1.000
    Si4535   Si       0.79480    0.21913    0.36324    1.000
    N4536    N        0.79927    0.02761    0.46696    1.000
    Si4537   Si       0.79867    0.10903    0.38366    1.000
    N4538    N        0.78503    0.09859    0.47129    1.000
    N4539    N        0.80033    0.02395    0.38632    1.000
    N4540    N        0.76523    0.08911    0.40128    1.000
    Si4541   Si       0.76247    0.04585    0.39451    1.000
    Si4542   Si       0.81274    0.12847    0.45419    1.000
    Si4543   Si       0.77814    0.19979    0.47532    1.000
    Si4544   Si       0.75672    0.12937    0.48334    1.000
    N4545    N        0.78339    0.15948    0.46070    1.000
    N4546    N        0.76177    0.20396    0.38625    1.000
    N4547    N        0.77267    0.23322    0.45084    1.000
    N4548    N        0.80076    0.04700    0.58203    1.000
    Si4549   Si       0.77637    0.02560    0.55521    1.000
    N4550    N        0.75887    0.05214    0.52105    1.000
    Si4551   Si       0.78965    0.06091    0.49359    1.000
    Si4552   Si       0.76621    0.23765    0.57874    1.000
    N4553    N        0.79681    0.19399    0.51457    1.000
    Si4554   Si       0.75889    0.17961    0.53212    1.000
    N4555    N        0.80536    0.24258    0.55790    1.000
    Si4556   Si       0.80262    0.04804    0.62445    1.000
    Si4557   Si       0.76120    0.09024    0.67792    1.000
    N4558    N        0.80056    0.09841    0.69248    1.000
    N4559    N        0.76498    0.07344    0.63678    1.000
    Si4560   Si       0.80638    0.12355    0.72763    1.000
    N4561    N        0.77461    0.24483    0.62114    1.000
    Si4562   Si       0.77800    0.17919    0.71868    1.000
    N4563    N        0.76876    0.14195    0.73970    1.000
    N4564    N        0.78422    0.20709    0.68333    1.000
    Si4565   Si       0.75784    0.22042    0.65174    1.000
    N4566    N        0.78962    0.09818    0.82239    1.000
    Si4567   Si       0.80014    0.07893    0.78379    1.000
    N4568    N        0.80525    0.03735    0.77673    1.000
    Si4569   Si       0.77707    0.01304    0.79728    1.000
    N4570    N        0.75870    0.08157    0.76663    1.000
    N4571    N        0.75797    0.02415    0.83554    1.000
    Si4572   Si       0.78977    0.21740    0.78968    1.000
    N4573    N        0.77509    0.19752    0.82312    1.000
    N4574    N        0.77234    0.20751    0.74884    1.000
    N4575    N        0.75699    0.24896    0.86358    1.000
    Si4576   Si       0.75071    0.20575    0.85682    1.000
    N4577    N        0.77890    0.25915    0.79700    1.000
    N4578    N        0.77550    0.06047    0.92794    1.000
    N4579    N        0.78188    0.12549    0.92779    1.000
    Si4580   Si       0.75433    0.09476    0.94327    1.000
    Si4581   Si       0.79040    0.19206    0.92453    1.000
    N4582    N        0.79043    0.23651    0.92305    1.000
    N4583    N        0.76618    0.25094    0.98887    1.000
    N4584    N        0.77970    0.19046    0.96831    1.000
    Si4585   Si       0.80102    0.24025    0.96698    1.000
    Si4586   Si       0.77691    0.14084    0.88725    1.000
    N4587    N        0.76420    0.18321    0.89345    1.000
    Si4588   Si       0.79771    0.28531    0.07028    1.000
    N4589    N        0.78821    0.30817    0.10369    1.000
    N4590    N        0.75770    0.27843    0.05063    1.000
    N4591    N        0.80074    0.36767    0.06391    1.000
    Si4592   Si       0.76644    0.38823    0.07575    1.000
    N4593    N        0.79619    0.46281    0.07279    1.000
    N4594    N        0.77531    0.40993    0.11304    1.000
    Si4595   Si       0.75843    0.41320    0.00941    1.000
    Si4596   Si       0.75359    0.45823    0.07445    1.000
    N4597    N        0.76220    0.45347    0.99600    1.000
    Si4598   Si       0.76745    0.27855    0.19801    1.000
    Si4599   Si       0.78973    0.31909    0.14484    1.000
    N4600    N        0.78653    0.36170    0.15433    1.000
    N4601    N        0.76294    0.30147    0.23468    1.000
    N4602    N        0.75578    0.29989    0.16286    1.000
    N4603    N        0.81046    0.26818    0.19105    1.000
    N4604    N        0.80950    0.36848    0.22165    1.000
    Si4605   Si       0.75843    0.46228    0.22461    1.000
    Si4606   Si       0.77523    0.38976    0.19975    1.000
    N4607    N        0.77985    0.50009    0.21856    1.000
    N4608    N        0.80934    0.43824    0.15342    1.000
    Si4609   Si       0.76525    0.44177    0.14539    1.000
    N4610    N        0.78861    0.42945    0.21683    1.000
    Si4611   Si       0.80972    0.39782    0.13632    1.000
    Si4612   Si       0.79625    0.36842    0.30505    1.000
    Si4613   Si       0.78638    0.29139    0.27203    1.000
    N4614    N        0.79977    0.33232    0.28230    1.000
    N4615    N        0.76105    0.37551    0.33281    1.000
    N4616    N        0.75557    0.27574    0.29583    1.000
    N4617    N        0.81098    0.25907    0.36760    1.000
    Si4618   Si       0.79226    0.44433    0.28422    1.000
    N4619    N        0.78708    0.44688    0.32706    1.000
    N4620    N        0.79278    0.40009    0.27794    1.000
    N4621    N        0.75990    0.46637    0.26872    1.000
    N4622    N        0.79591    0.33570    0.38123    1.000
    Si4623   Si       0.77849    0.27405    0.46607    1.000
    N4624    N        0.77331    0.30767    0.44040    1.000
    Si4625   Si       0.80409    0.33316    0.42463    1.000
    Si4626   Si       0.75960    0.35636    0.37094    1.000
    N4627    N        0.80872    0.37061    0.44804    1.000
    N4628    N        0.76189    0.38840    0.39910    1.000
    Si4629   Si       0.80068    0.39917    0.41205    1.000
    N4630    N        0.79789    0.49605    0.37597    1.000
    Si4631   Si       0.77832    0.50013    0.48071    1.000
    Si4632   Si       0.76994    0.47188    0.40659    1.000
    N4633    N        0.80484    0.44216    0.41030    1.000
    N4634    N        0.77061    0.50098    0.43805    1.000
    N4635    N        0.79117    0.31050    0.53814    1.000
    N4636    N        0.78308    0.37887    0.54713    1.000
    Si4637   Si       0.74885    0.30213    0.53614    1.000
    Si4638   Si       0.80200    0.38596    0.58894    1.000
    Si4639   Si       0.77070    0.48535    0.58102    1.000
    N4640    N        0.80209    0.50406    0.55296    1.000
    N4641    N        0.79624    0.49027    0.61536    1.000
    N4642    N        0.77432    0.36961    0.61975    1.000
    N4643    N        0.77968    0.30726    0.65892    1.000
    Si4644   Si       0.78914    0.34852    0.65486    1.000
    N4645    N        0.77565    0.26821    0.71994    1.000
    Si4646   Si       0.80091    0.27507    0.63800    1.000
    N4647    N        0.76140    0.36792    0.68454    1.000
    Si4648   Si       0.76962    0.47848    0.64718    1.000
    N4649    N        0.78174    0.44355    0.66993    1.000
    N4650    N        0.78727    0.47290    0.72852    1.000
    Si4651   Si       0.78601    0.33507    0.83433    1.000
    N4652    N        0.77690    0.35887    0.79889    1.000
    Si4653   Si       0.77330    0.28493    0.76151    1.000
    N4654    N        0.75791    0.41849    0.82586    1.000
    N4655    N        0.79783    0.41927    0.76980    1.000
    Si4656   Si       0.79149    0.39905    0.80612    1.000
    Si4657   Si       0.76703    0.44052    0.74891    1.000
    N4658    N        0.78375    0.35837    0.87042    1.000
    Si4659   Si       0.78801    0.35339    0.97123    1.000
    N4660    N        0.76529    0.35752    0.93574    1.000
    Si4661   Si       0.77357    0.27134    0.89860    1.000
    N4662    N        0.81002    0.29449    0.90335    1.000
    N4663    N        0.76091    0.32373    0.99117    1.000
    Si4664   Si       0.80024    0.47287    0.98862    1.000
    Si4665   Si       0.76927    0.38414    0.90275    1.000
    N4666    N        0.80776    0.40709    0.90585    1.000
    Si4667   Si       0.76828    0.48060    0.91838    1.000
    N4668    N        0.79153    0.39202    0.99144    1.000
    N4669    N        0.78105    0.46742    0.87690    1.000
    N4670    N        0.80077    0.46815    0.94505    1.000
    N4671    N        0.78047    0.61140    0.07839    1.000
    Si4672   Si       0.79298    0.58046    0.04894    1.000
    N4673    N        0.80087    0.59726    0.01082    1.000
    Si4674   Si       0.80119    0.61535    0.11678    1.000
    Si4675   Si       0.75552    0.51654    0.02481    1.000
    N4676    N        0.75831    0.55608    0.04270    1.000
    N4677    N        0.79994    0.50776    0.01313    1.000
    N4678    N        0.77751    0.71626    0.02435    1.000
    N4679    N        0.78563    0.74509    0.08735    1.000
    Si4680   Si       0.77653    0.67677    0.00685    1.000
    Si4681   Si       0.79578    0.75102    0.00551    1.000
    Si4682   Si       0.76176    0.72040    0.06383    1.000
    N4683    N        0.75982    0.67962    0.08144    1.000
    Si4684   Si       0.79874    0.57811    0.17826    1.000
    N4685    N        0.77564    0.59309    0.14382    1.000
    N4686    N        0.76489    0.55613    0.19888    1.000
    Si4687   Si       0.77419    0.53857    0.23885    1.000
    Si4688   Si       0.75954    0.51219    0.18079    1.000
    N4689    N        0.80752    0.61102    0.20586    1.000
    N4690    N        0.79114    0.51208    0.15173    1.000
    Si4691   Si       0.77352    0.62677    0.22763    1.000
    N4692    N        0.76073    0.66753    0.21486    1.000
    Si4693   Si       0.76969    0.70375    0.19261    1.000
    N4694    N        0.75367    0.74213    0.20958    1.000
    Si4695   Si       0.75965    0.66693    0.12227    1.000
    N4696    N        0.80033    0.65670    0.13153    1.000
    N4697    N        0.79766    0.58357    0.32207    1.000
    Si4698   Si       0.79865    0.54273    0.30492    1.000
    N4699    N        0.76478    0.51565    0.31839    1.000
    Si4700   Si       0.76230    0.51995    0.36071    1.000
    N4701    N        0.76535    0.62420    0.27097    1.000
    Si4702   Si       0.78179    0.62380    0.31064    1.000
    N4703    N        0.80748    0.55111    0.26168    1.000
    N4704    N        0.78458    0.72367    0.35317    1.000
    N4705    N        0.78680    0.72562    0.28638    1.000
    Si4706   Si       0.80023    0.70069    0.32012    1.000
    N4707    N        0.80931    0.65828    0.31740    1.000
    Si4708   Si       0.76615    0.75702    0.30596    1.000
    N4709    N        0.77174    0.55367    0.38420    1.000
    Si4710   Si       0.78715    0.58542    0.40729    1.000
    N4711    N        0.75658    0.61582    0.41781    1.000
    N4712    N        0.81113    0.61214    0.38437    1.000
    Si4713   Si       0.75316    0.70681    0.37964    1.000
    N4714    N        0.77529    0.67414    0.39681    1.000
    N4715    N        0.76916    0.67040    0.46746    1.000
    Si4716   Si       0.81134    0.66464    0.47642    1.000
    N4717    N        0.78794    0.57817    0.55230    1.000
    Si4718   Si       0.77380    0.53713    0.54768    1.000
    Si4719   Si       0.77599    0.61336    0.52936    1.000
    N4720    N        0.76534    0.53246    0.50550    1.000
    N4721    N        0.80910    0.63228    0.50840    1.000
    N4722    N        0.77184    0.64033    0.56250    1.000
    Si4723   Si       0.78902    0.68093    0.56206    1.000
    N4724    N        0.78007    0.69966    0.52488    1.000
    Si4725   Si       0.80869    0.72675    0.50827    1.000
    N4726    N        0.75732    0.69721    0.58517    1.000
    Si4727   Si       0.77551    0.51432    0.73680    1.000
    Si4728   Si       0.76126    0.60678    0.70920    1.000
    Si4729   Si       0.78912    0.54824    0.67332    1.000
    N4730    N        0.76220    0.51577    0.66802    1.000
    N4731    N        0.77824    0.58970    0.67407    1.000
    Si4732   Si       0.78919    0.61965    0.64368    1.000
    N4733    N        0.80549    0.53530    0.71230    1.000
    N4734    N        0.79257    0.63382    0.72355    1.000
    N4735    N        0.79321    0.75021    0.68683    1.000
    Si4736   Si       0.77829    0.56913    0.77702    1.000
    N4737    N        0.78845    0.52683    0.77566    1.000
    Si4738   Si       0.75937    0.58562    0.85061    1.000
    N4739    N        0.81025    0.59897    0.77919    1.000
    Si4740   Si       0.79358    0.63856    0.76660    1.000
    N4741    N        0.78205    0.68985    0.83433    1.000
    N4742    N        0.76823    0.73247    0.78004    1.000
    Si4743   Si       0.77497    0.69167    0.79228    1.000
    Si4744   Si       0.78279    0.65443    0.85907    1.000
    Si4745   Si       0.80447    0.72367    0.85188    1.000
    N4746    N        0.75448    0.65438    0.77803    1.000
    N4747    N        0.79397    0.57596    0.87440    1.000
    N4748    N        0.79866    0.62231    0.94242    1.000
    Si4749   Si       0.78203    0.59542    0.97235    1.000
    Si4750   Si       0.79158    0.54924    0.90928    1.000
    N4751    N        0.78402    0.55902    0.94962    1.000
    N4752    N        0.77027    0.74338    0.87157    1.000
    N4753    N        0.77900    0.67745    0.89640    1.000
    Si4754   Si       0.77396    0.65178    0.92989    1.000
    N4755    N        0.76460    0.67590    0.96514    1.000
    Si4756   Si       0.79352    0.78407    0.07530    1.000
    N4757    N        0.79964    0.85039    0.05390    1.000
    N4758    N        0.80156    0.78583    0.03145    1.000
    Si4759   Si       0.75687    0.84546    0.05761    1.000
    N4760    N        0.75110    0.80514    0.07032    1.000
    N4761    N        0.79195    0.91665    0.07285    1.000
    N4762    N        0.80524    0.99177    0.06892    1.000
    Si4763   Si       0.79811    0.00190    0.02455    1.000
    N4764    N        0.80590    0.96515    0.00469    1.000
    Si4765   Si       0.80795    0.95455    0.09081    1.000
    Si4766   Si       0.77648    0.77389    0.22949    1.000
    N4767    N        0.77446    0.80923    0.20531    1.000
    N4768    N        0.80634    0.83558    0.15554    1.000
    Si4769   Si       0.76637    0.88237    0.21888    1.000
    N4770    N        0.81029    0.86963    0.21838    1.000
    Si4771   Si       0.81152    0.83221    0.19662    1.000
    N4772    N        0.78029    0.92529    0.22656    1.000
    Si4773   Si       0.76135    0.96590    0.15643    1.000
    N4774    N        0.79241    0.98161    0.18409    1.000
    N4775    N        0.79205    0.95181    0.13083    1.000
    N4776    N        0.78867    0.78731    0.32831    1.000
    Si4777   Si       0.76232    0.81697    0.34742    1.000
    N4778    N        0.80180    0.82827    0.27458    1.000
    Si4779   Si       0.75833    0.82623    0.27433    1.000
    Si4780   Si       0.80506    0.76115    0.36031    1.000
    N4781    N        0.78882    0.84473    0.36583    1.000
    N4782    N        0.75513    0.86904    0.25792    1.000
    N4783    N        0.75336    0.78144    0.26734    1.000
    N4784    N        0.77890    0.96147    0.35121    1.000
    Si4785   Si       0.77458    0.95321    0.30748    1.000
    N4786    N        0.80862    0.96455    0.28266    1.000
    Si4787   Si       0.77084    0.00352    0.33927    1.000
    N4788    N        0.76413    0.90520    0.37187    1.000
    N4789    N        0.79504    0.78393    0.39584    1.000
    Si4790   Si       0.77118    0.87258    0.39738    1.000
    N4791    N        0.79372    0.85075    0.42958    1.000
    Si4792   Si       0.80184    0.93146    0.37297    1.000
    Si4793   Si       0.76353    0.00462    0.45598    1.000
    N4794    N        0.78447    0.97450    0.42913    1.000
    N4795    N        0.78806    0.93197    0.48507    1.000
    Si4796   Si       0.77825    0.93334    0.44287    1.000
    N4797    N        0.80225    0.91192    0.41408    1.000
    Si4798   Si       0.78669    0.79241    0.53642    1.000
    Si4799   Si       0.77153    0.86103    0.54293    1.000
    N4800    N        0.78828    0.84059    0.57946    1.000
    N4801    N        0.76825    0.77415    0.57170    1.000
    Si4802   Si       0.76123    0.80875    0.59564    1.000
    N4803    N        0.80696    0.87204    0.52254    1.000
    N4804    N        0.78166    0.76179    0.50342    1.000
    N4805    N        0.75710    0.82469    0.52566    1.000
    Si4806   Si       0.77591    0.96311    0.51257    1.000
    N4807    N        0.77649    0.93880    0.54990    1.000
    N4808    N        0.79916    0.99678    0.53249    1.000
    N4809    N        0.80430    0.81969    0.69511    1.000
    N4810    N        0.77912    0.86439    0.64946    1.000
    N4811    N        0.77808    0.79683    0.63371    1.000
    Si4812   Si       0.78625    0.83748    0.73231    1.000
    Si4813   Si       0.76427    0.76520    0.65866    1.000
    Si4814   Si       0.80350    0.82900    0.65337    1.000
    N4815    N        0.76988    0.87719    0.72404    1.000
    N4816    N        0.75366    0.81053    0.74327    1.000
    Si4817   Si       0.81299    0.00022    0.68513    1.000
    Si4818   Si       0.79270    0.88340    0.68682    1.000
    N4819    N        0.78920    0.92425    0.66810    1.000
    Si4820   Si       0.77873    0.90373    0.63012    1.000
    N4821    N        0.77033    0.00243    0.69039    1.000
    Si4822   Si       0.76739    0.95595    0.69406    1.000
    N4823    N        0.78283    0.79986    0.80267    1.000
    N4824    N        0.79460    0.86109    0.82525    1.000
    Si4825   Si       0.79838    0.76362    0.78679    1.000
    Si4826   Si       0.81088    0.86776    0.86541    1.000
    Si4827   Si       0.75543    0.87429    0.81224    1.000
    Si4828   Si       0.81155    0.83127    0.80074    1.000
    N4829    N        0.78932    0.97268    0.80269    1.000
    Si4830   Si       0.76413    0.99154    0.86339    1.000
    N4831    N        0.76168    0.90942    0.78843    1.000
    N4832    N        0.80585    0.97812    0.86877    1.000
    Si4833   Si       0.75421    0.94817    0.80304    1.000
    N4834    N        0.76883    0.76476    0.97380    1.000
    N4835    N        0.76941    0.83455    0.95270    1.000
    Si4836   Si       0.78253    0.79361    0.94394    1.000
    Si4837   Si       0.79266    0.86782    0.96553    1.000
    N4838    N        0.81263    0.83094    0.88728    1.000
    Si4839   Si       0.80634    0.98788    0.91196    1.000
    N4840    N        0.75994    0.99767    0.90664    1.000
    N4841    N        0.79313    0.90611    0.87984    1.000
    Si4842   Si       0.78269    0.94695    0.97425    1.000
    N4843    N        0.80032    0.95365    0.93587    1.000
    N4844    N        0.77516    0.90433    0.98041    1.000
    N4845    N        0.84014    0.06049    0.06576    1.000
    Si4846   Si       0.82932    0.10849    0.01548    1.000
    Si4847   Si       0.86084    0.09527    0.08054    1.000
    N4848    N        0.84142    0.12498    0.05338    1.000
    N4849    N        0.83850    0.01665    0.01383    1.000
    Si4850   Si       0.81926    0.02784    0.08971    1.000
    Si4851   Si       0.86404    0.04673    0.03034    1.000
    N4852    N        0.86192    0.08177    0.00127    1.000
    N4853    N        0.85144    0.01427    0.11248    1.000
    N4854    N        0.86094    0.19262    0.07901    1.000
    Si4855   Si       0.83909    0.22096    0.05595    1.000
    Si4856   Si       0.82946    0.16509    0.06576    1.000
    N4857    N        0.86018    0.24725    0.03032    1.000
    N4858    N        0.81966    0.19030    0.03100    1.000
    N4859    N        0.84850    0.09895    0.12057    1.000
    N4860    N        0.85895    0.07163    0.22274    1.000
    Si4861   Si       0.84974    0.12149    0.15678    1.000
    Si4862   Si       0.82425    0.09968    0.21884    1.000
    Si4863   Si       0.85493    0.03002    0.23780    1.000
    N4864    N        0.81746    0.09720    0.17629    1.000
    Si4865   Si       0.84263    0.19980    0.15622    1.000
    N4866    N        0.83026    0.20108    0.19871    1.000
    Si4867   Si       0.85118    0.17989    0.22961    1.000
    N4868    N        0.83812    0.13927    0.23381    1.000
    N4869    N        0.82780    0.15748    0.14826    1.000
    N4870    N        0.85622    0.24122    0.14962    1.000
    Si4871   Si       0.85417    0.10311    0.33378    1.000
    N4872    N        0.82747    0.11749    0.30216    1.000
    N4873    N        0.86033    0.01704    0.34916    1.000
    Si4874   Si       0.82352    0.04027    0.35334    1.000
    N4875    N        0.85839    0.02522    0.28136    1.000
    N4876    N        0.82106    0.08412    0.35634    1.000
    N4877    N        0.86559    0.13614    0.36057    1.000
    N4878    N        0.85532    0.22425    0.31813    1.000
    N4879    N        0.83239    0.19061    0.26865    1.000
    Si4880   Si       0.81954    0.22100    0.29363    1.000
    Si4881   Si       0.85868    0.22041    0.36067    1.000
    Si4882   Si       0.81837    0.14806    0.27064    1.000
    N4883    N        0.86375    0.05684    0.45900    1.000
    Si4884   Si       0.84256    0.01873    0.46549    1.000
    N4885    N        0.85359    0.12472    0.47130    1.000
    Si4886   Si       0.85910    0.08644    0.49064    1.000
    N4887    N        0.82368    0.12882    0.41266    1.000
    N4888    N        0.82764    0.19390    0.37437    1.000
    Si4889   Si       0.84930    0.16098    0.39364    1.000
    N4890    N        0.87175    0.18046    0.42586    1.000
    N4891    N        0.82622    0.06920    0.51704    1.000
    Si4892   Si       0.83496    0.06319    0.55922    1.000
    N4893    N        0.85093    0.10192    0.57003    1.000
    N4894    N        0.85890    0.02586    0.55992    1.000
    Si4895   Si       0.84154    0.13861    0.59232    1.000
    Si4896   Si       0.82535    0.20515    0.54771    1.000
    N4897    N        0.82257    0.16901    0.56963    1.000
    N4898    N        0.86087    0.23193    0.61051    1.000
    N4899    N        0.86717    0.21646    0.54579    1.000
    N4900    N        0.86579    0.12035    0.67684    1.000
    Si4901   Si       0.82856    0.10520    0.65956    1.000
    N4902    N        0.83706    0.06767    0.64110    1.000
    N4903    N        0.84658    0.02427    0.69468    1.000
    Si4904   Si       0.86565    0.03897    0.65869    1.000
    N4905    N        0.81720    0.13225    0.62779    1.000
    N4906    N        0.81971    0.16230    0.71215    1.000
    Si4907   Si       0.85893    0.15921    0.69383    1.000
    N4908    N        0.84299    0.23045    0.72541    1.000
    N4909    N        0.85664    0.19201    0.66533    1.000
    Si4910   Si       0.82698    0.21522    0.68632    1.000
    N4911    N        0.82577    0.25612    0.66994    1.000
    N4912    N        0.84559    0.07261    0.81188    1.000
    Si4913   Si       0.84719    0.03043    0.78365    1.000
    N4914    N        0.82643    0.10482    0.76031    1.000
    Si4915   Si       0.82577    0.10169    0.84524    1.000
    Si4916   Si       0.85412    0.04451    0.84510    1.000
    Si4917   Si       0.86392    0.09576    0.78025    1.000
    N4918    N        0.84551    0.00944    0.82129    1.000
    N4919    N        0.87029    0.12265    0.84077    1.000
    N4920    N        0.83072    0.20128    0.78474    1.000
    Si4921   Si       0.86192    0.21467    0.81168    1.000
    Si4922   Si       0.86193    0.20109    0.75169    1.000
    N4923    N        0.86530    0.19141    0.84674    1.000
    Si4924   Si       0.85559    0.15371    0.86765    1.000
    N4925    N        0.81565    0.13755    0.86908    1.000
    N4926    N        0.86021    0.25882    0.80963    1.000
    N4927    N        0.82613    0.06745    0.87162    1.000
    N4928    N        0.83463    0.01889    0.92013    1.000
    N4929    N        0.84186    0.09148    0.93685    1.000
    Si4930   Si       0.81828    0.06118    0.91439    1.000
    Si4931   Si       0.82334    0.12996    0.94071    1.000
    N4932    N        0.82886    0.17035    0.92536    1.000
    Si4933   Si       0.81819    0.18130    0.98946    1.000
    N4934    N        0.84193    0.21410    0.96988    1.000
    Si4935   Si       0.86379    0.19773    0.93600    1.000
    Si4936   Si       0.86173    0.24979    0.98726    1.000
    N4937    N        0.82749    0.14115    0.98396    1.000
    N4938    N        0.83091    0.30677    0.04939    1.000
    Si4939   Si       0.83805    0.34991    0.04942    1.000
    N4940    N        0.85090    0.37117    0.01451    1.000
    Si4941   Si       0.86840    0.28798    0.04300    1.000
    N4942    N        0.86915    0.35459    0.07885    1.000
    N4943    N        0.85862    0.42948    0.07325    1.000
    Si4944   Si       0.83362    0.45596    0.05137    1.000
    N4945    N        0.85675    0.49316    0.05403    1.000
    N4946    N        0.82735    0.44731    0.01085    1.000
    Si4947   Si       0.87085    0.39456    0.09774    1.000
    Si4948   Si       0.83266    0.40622    0.99520    1.000
    Si4949   Si       0.86524    0.34713    0.15392    1.000
    Si4950   Si       0.84549    0.27994    0.16871    1.000
    N4951    N        0.83396    0.31655    0.15191    1.000
    N4952    N        0.85392    0.31230    0.24635    1.000
    N4953    N        0.85139    0.38371    0.13575    1.000
    Si4954   Si       0.82196    0.40838    0.24367    1.000
    Si4955   Si       0.82439    0.44887    0.19211    1.000
    N4956    N        0.85139    0.42098    0.21005    1.000
    N4957    N        0.84997    0.48595    0.18391    1.000
    N4958    N        0.83401    0.36996    0.32506    1.000
    Si4959   Si       0.85877    0.27775    0.27218    1.000
    N4960    N        0.81725    0.26182    0.27450    1.000
    Si4961   Si       0.82953    0.34582    0.25373    1.000
    Si4962   Si       0.83346    0.35213    0.36389    1.000
    N4963    N        0.85760    0.31574    0.36423    1.000
    Si4964   Si       0.86877    0.38272    0.30189    1.000
    N4965    N        0.85646    0.38077    0.26070    1.000
    Si4966   Si       0.81452    0.47577    0.34034    1.000
    N4967    N        0.83134    0.44972    0.26643    1.000
    Si4968   Si       0.85171    0.48630    0.27501    1.000
    N4969    N        0.85155    0.45912    0.35744    1.000
    N4970    N        0.82968    0.50517    0.31091    1.000
    N4971    N        0.83743    0.30070    0.42647    1.000
    Si4972   Si       0.84159    0.37135    0.47713    1.000
    Si4973   Si       0.85387    0.28181    0.46106    1.000
    Si4974   Si       0.84335    0.28338    0.38756    1.000
    N4975    N        0.81766    0.27224    0.48709    1.000
    N4976    N        0.82139    0.49766    0.48606    1.000
    Si4977   Si       0.85456    0.49737    0.45960    1.000
    N4978    N        0.83680    0.38453    0.39262    1.000
    N4979    N        0.84468    0.49806    0.41822    1.000
    Si4980   Si       0.84550    0.45724    0.40091    1.000
    N4981    N        0.84414    0.41036    0.49323    1.000
    N4982    N        0.82776    0.35488    0.58237    1.000
    N4983    N        0.85697    0.28624    0.54613    1.000
    N4984    N        0.84629    0.34712    0.51267    1.000
    Si4985   Si       0.81756    0.27666    0.53164    1.000
    Si4986   Si       0.84450    0.33359    0.61542    1.000
    Si4987   Si       0.81387    0.34741    0.53973    1.000
    N4988    N        0.85346    0.45770    0.54254    1.000
    Si4989   Si       0.83380    0.49393    0.52672    1.000
    Si4990   Si       0.85650    0.44748    0.58352    1.000
    N4991    N        0.86441    0.48709    0.60135    1.000
    N4992    N        0.81964    0.42447    0.59056    1.000
    N4993    N        0.83655    0.29195    0.62158    1.000
    N4994    N        0.83134    0.35302    0.65318    1.000
    Si4995   Si       0.82539    0.26920    0.71819    1.000
    N4996    N        0.85660    0.36460    0.72244    1.000
    N4997    N        0.85719    0.29996    0.71250    1.000
    Si4998   Si       0.86322    0.36702    0.67968    1.000
    Si4999   Si       0.86007    0.26110    0.64150    1.000
    Si5000   Si       0.81129    0.45951    0.69640    1.000
    Si5001   Si       0.83580    0.50197    0.63246    1.000
    N5002    N        0.84100    0.43683    0.71650    1.000
    N5003    N        0.84070    0.48351    0.67396    1.000
    Si5004   Si       0.83480    0.29290    0.79714    1.000
    N5005    N        0.85989    0.32923    0.78410    1.000
    N5006    N        0.82197    0.31021    0.83429    1.000
    N5007    N        0.81591    0.29582    0.75797    1.000
    Si5008   Si       0.84561    0.32820    0.74281    1.000
    Si5009   Si       0.86531    0.40142    0.82167    1.000
    N5010    N        0.82572    0.39287    0.83440    1.000
    N5011    N        0.84710    0.47270    0.77694    1.000
    Si5012   Si       0.83730    0.43251    0.75972    1.000
    N5013    N        0.82896    0.49345    0.83066    1.000
    N5014    N        0.86384    0.40387    0.77767    1.000
    Si5015   Si       0.86505    0.47521    0.81511    1.000
    Si5016   Si       0.82245    0.37945    0.87548    1.000
    Si5017   Si       0.83810    0.30916    0.87408    1.000
    N5018    N        0.82710    0.33956    0.96093    1.000
    N5019    N        0.82728    0.27325    0.97243    1.000
    Si5020   Si       0.83345    0.30183    0.93875    1.000
    N5021    N        0.85248    0.35161    0.88432    1.000
    Si5022   Si       0.86409    0.34171    0.98457    1.000
    Si5023   Si       0.82691    0.43827    0.92747    1.000
    Si5024   Si       0.81901    0.48360    0.87009    1.000
    N5025    N        0.84980    0.41440    0.95661    1.000
    N5026    N        0.85041    0.46440    0.89775    1.000
    Si5027   Si       0.85708    0.50820    0.91280    1.000
    Si5028   Si       0.84932    0.56089    0.09579    1.000
    Si5029   Si       0.83562    0.52437    0.03138    1.000
    Si5030   Si       0.83599    0.62304    0.00674    1.000
    N5031    N        0.82338    0.55461    0.06231    1.000
    N5032    N        0.86549    0.61677    0.03860    1.000
    N5033    N        0.84063    0.59781    0.11617    1.000
    N5034    N        0.86632    0.55069    0.01236    1.000
    N5035    N        0.85256    0.52297    0.11740    1.000
    Si5036   Si       0.84995    0.69492    0.00908    1.000
    N5037    N        0.86288    0.68595    0.05335    1.000
    N5038    N        0.81858    0.66313    0.00467    1.000
    Si5039   Si       0.86869    0.71312    0.08798    1.000
    N5040    N        0.86271    0.75293    0.06784    1.000
    N5041    N        0.83392    0.55598    0.17798    1.000
    Si5042   Si       0.83405    0.51716    0.15544    1.000
    Si5043   Si       0.84975    0.62699    0.20826    1.000
    Si5044   Si       0.87267    0.62105    0.13491    1.000
    N5045    N        0.86925    0.58543    0.22773    1.000
    Si5046   Si       0.82869    0.68007    0.15196    1.000
    N5047    N        0.85149    0.70284    0.12480    1.000
    N5048    N        0.81231    0.70729    0.18446    1.000
    N5049    N        0.85643    0.64907    0.16840    1.000
    Si5050   Si       0.83654    0.73405    0.20508    1.000
    Si5051   Si       0.83010    0.59074    0.35028    1.000
    Si5052   Si       0.85326    0.55525    0.25670    1.000
    N5053    N        0.86183    0.61652    0.33800    1.000
    Si5054   Si       0.86316    0.52852    0.33129    1.000
    N5055    N        0.84148    0.55012    0.36251    1.000
    N5056    N        0.86791    0.55774    0.29910    1.000
    N5057    N        0.86248    0.51418    0.24333    1.000
    Si5058   Si       0.82774    0.73866    0.27261    1.000
    Si5059   Si       0.85112    0.66101    0.33076    1.000
    N5060    N        0.84011    0.71915    0.31426    1.000
    Si5061   Si       0.86384    0.75341    0.32314    1.000
    N5062    N        0.85521    0.71509    0.24570    1.000
    N5063    N        0.81792    0.56062    0.42618    1.000
    Si5064   Si       0.85558    0.57067    0.44650    1.000
    N5065    N        0.84634    0.57852    0.49104    1.000
    Si5066   Si       0.82234    0.52868    0.39545    1.000
    N5067    N        0.84456    0.67169    0.37324    1.000
    N5068    N        0.82971    0.64944    0.43907    1.000
    Si5069   Si       0.81470    0.65354    0.39880    1.000
    N5070    N        0.83136    0.70227    0.47991    1.000
    Si5071   Si       0.86621    0.72467    0.46529    1.000
    N5072    N        0.85914    0.72759    0.42160    1.000
    Si5073   Si       0.87110    0.63931    0.45068    1.000
    N5074    N        0.85697    0.60337    0.55583    1.000
    Si5075   Si       0.84908    0.61359    0.51550    1.000
    N5076    N        0.84403    0.55034    0.59324    1.000
    Si5077   Si       0.82391    0.58509    0.57519    1.000
    N5078    N        0.86816    0.52314    0.53408    1.000
    N5079    N        0.81701    0.60097    0.61594    1.000
    N5080    N        0.84133    0.73396    0.53591    1.000
    Si5081   Si       0.85945    0.70939    0.56374    1.000
    N5082    N        0.82707    0.68544    0.58390    1.000
    Si5083   Si       0.84587    0.57173    0.63089    1.000
    N5084    N        0.82965    0.54007    0.65554    1.000
    Si5085   Si       0.84209    0.52383    0.69500    1.000
    N5086    N        0.86236    0.63262    0.70080    1.000
    Si5087   Si       0.82365    0.65281    0.70119    1.000
    N5088    N        0.84314    0.71227    0.64625    1.000
    Si5089   Si       0.83757    0.67362    0.62586    1.000
    N5090    N        0.83439    0.69251    0.71335    1.000
    Si5091   Si       0.82884    0.72370    0.68512    1.000
    N5092    N        0.81538    0.65346    0.65816    1.000
    N5093    N        0.85431    0.54043    0.78284    1.000
    Si5094   Si       0.84860    0.58334    0.78855    1.000
    N5095    N        0.85913    0.59159    0.82877    1.000
    Si5096   Si       0.83288    0.59418    0.86506    1.000
    Si5097   Si       0.82346    0.50771    0.78764    1.000
    Si5098   Si       0.84757    0.69116    0.75397    1.000
    N5099    N        0.82174    0.75067    0.82129    1.000
    N5100    N        0.82072    0.63656    0.86280    1.000
    N5101    N        0.81283    0.67731    0.77653    1.000
    N5102    N        0.85864    0.53020    0.94886    1.000
    Si5103   Si       0.84002    0.61826    0.93201    1.000
    N5104    N        0.85327    0.60504    0.97016    1.000
    N5105    N        0.85200    0.58948    0.90223    1.000
    N5106    N        0.81906    0.51845    0.89628    1.000
    N5107    N        0.83925    0.70743    0.87230    1.000
    N5108    N        0.87081    0.72432    0.92799    1.000
    N5109    N        0.85328    0.65627    0.92044    1.000
    N5110    N        0.83360    0.73274    0.99020    1.000
    Si5111   Si       0.84856    0.66555    0.87763    1.000
    Si5112   Si       0.85122    0.75337    0.95632    1.000
    N5113    N        0.82795    0.80029    0.09660    1.000
    N5114    N        0.83925    0.86986    0.10719    1.000
    N5115    N        0.86099    0.82014    0.03414    1.000
    Si5116   Si       0.86224    0.79805    0.06991    1.000
    Si5117   Si       0.81912    0.82541    0.02271    1.000
    Si5118   Si       0.82049    0.88484    0.06875    1.000
    N5119    N        0.85528    0.89250    0.04014    1.000
    N5120    N        0.84977    0.93577    0.09556    1.000
    Si5121   Si       0.84769    0.97524    0.00315    1.000
    Si5122   Si       0.87089    0.92774    0.05900    1.000
    Si5123   Si       0.83603    0.83117    0.12522    1.000
    N5124    N        0.85000    0.81234    0.20759    1.000
    N5125    N        0.81706    0.76314    0.23549    1.000
    N5126    N        0.84380    0.93959    0.21961    1.000
    N5127    N        0.82821    0.90864    0.16506    1.000
    N5128    N        0.86063    0.96743    0.16429    1.000
    Si5129   Si       0.82062    0.95257    0.16624    1.000
    Si5130   Si       0.85343    0.90513    0.12885    1.000
    Si5131   Si       0.84080    0.89775    0.20322    1.000
    N5132    N        0.84369    0.77710    0.29110    1.000
    N5133    N        0.84426    0.84401    0.32323    1.000
    Si5134   Si       0.82427    0.86560    0.35353    1.000
    Si5135   Si       0.82162    0.81025    0.30885    1.000
    Si5136   Si       0.82539    0.86210    0.25928    1.000
    N5137    N        0.86355    0.83835    0.26138    1.000
    N5138    N        0.84979    0.76329    0.36142    1.000
    Si5139   Si       0.85040    0.79500    0.24910    1.000
    Si5140   Si       0.85423    0.91629    0.31007    1.000
    N5141    N        0.83107    0.90095    0.27421    1.000
    N5142    N        0.82733    0.90625    0.34350    1.000
    Si5143   Si       0.86886    0.97510    0.35764    1.000
    Si5144   Si       0.81362    0.93383    0.25145    1.000
    Si5145   Si       0.81727    0.00761    0.28287    1.000
    Si5146   Si       0.81688    0.82117    0.40619    1.000
    N5147    N        0.84249    0.85971    0.39568    1.000
    N5148    N        0.85425    0.80193    0.42180    1.000
    N5149    N        0.86065    0.76501    0.48005    1.000
    N5150    N        0.86347    0.83824    0.48855    1.000
    Si5151   Si       0.87021    0.80387    0.46154    1.000
    Si5152   Si       0.82663    0.88092    0.43080    1.000
    Si5153   Si       0.86547    0.76557    0.40056    1.000
    Si5154   Si       0.81875    0.98897    0.40774    1.000
    N5155    N        0.85558    0.99628    0.42879    1.000
    N5156    N        0.84169    0.89594    0.46857    1.000
    N5157    N        0.83474    0.95963    0.37971    1.000
    Si5158   Si       0.83975    0.84308    0.52607    1.000
    Si5159   Si       0.85723    0.77145    0.52178    1.000
    N5160    N        0.82854    0.80133    0.53213    1.000
    N5161    N        0.85698    0.86216    0.56265    1.000
    Si5162   Si       0.82365    0.86174    0.59199    1.000
    N5163    N        0.83859    0.93662    0.53020    1.000
    Si5164   Si       0.84107    0.98715    0.53932    1.000
    N5165    N        0.83919    0.96900    0.58462    1.000
    N5166    N        0.85749    0.99498    0.49948    1.000
    Si5167   Si       0.81920    0.90887    0.50291    1.000
    Si5168   Si       0.81621    0.93465    0.56805    1.000
    N5169    N        0.81027    0.90306    0.59889    1.000
    N5170    N        0.83601    0.83480    0.62581    1.000
    N5171    N        0.85385    0.75849    0.70037    1.000
    Si5172   Si       0.86252    0.76116    0.74362    1.000
    Si5173   Si       0.87457    0.87207    0.69414    1.000
    Si5174   Si       0.81408    0.78038    0.70906    1.000
    Si5175   Si       0.84585    0.98242    0.62338    1.000
    N5176    N        0.83245    0.89252    0.70145    1.000
    Si5177   Si       0.84473    0.96180    0.74154    1.000
    N5178    N        0.85432    0.95059    0.65207    1.000
    N5179    N        0.81403    0.96271    0.70882    1.000
    Si5180   Si       0.83061    0.93172    0.68184    1.000
    Si5181   Si       0.83994    0.88212    0.74813    1.000
    N5182    N        0.81216    0.00639    0.63864    1.000
    N5183    N        0.84826    0.81912    0.81997    1.000
    Si5184   Si       0.85743    0.77745    0.83045    1.000
    N5185    N        0.82080    0.77364    0.75069    1.000
    N5186    N        0.81714    0.84822    0.76122    1.000
    N5187    N        0.85315    0.87968    0.86492    1.000
    Si5188   Si       0.87206    0.85347    0.83520    1.000
    N5189    N        0.86340    0.99820    0.75659    1.000
    N5190    N        0.84012    0.92382    0.76307    1.000
    N5191    N        0.85054    0.93901    0.82923    1.000
    Si5192   Si       0.82554    0.97246    0.83006    1.000
    Si5193   Si       0.86651    0.92136    0.86667    1.000
    N5194    N        0.82112    0.88350    0.93721    1.000
    N5195    N        0.82126    0.77856    0.93443    1.000
    Si5196   Si       0.84048    0.80098    0.90277    1.000
    N5197    N        0.86696    0.82758    0.92563    1.000
    N5198    N        0.85766    0.77127    0.87429    1.000
    Si5199   Si       0.85156    0.85552    0.95348    1.000
    N5200    N        0.82587    0.84892    0.98826    1.000
    N5201    N        0.85412    0.93805    0.90474    1.000
    Si5202   Si       0.81652    0.92030    0.91481    1.000
    N5203    N        0.89896    0.03257    0.04979    1.000
    N5204    N        0.90388    0.09521    0.07967    1.000
    Si5205   Si       0.92425    0.05954    0.07325    1.000
    Si5206   Si       0.90392    0.18352    0.07988    1.000
    N5207    N        0.90585    0.15477    0.04771    1.000
    N5208    N        0.91557    0.15926    0.11409    1.000
    N5209    N        0.92342    0.22351    0.07425    1.000
    Si5210   Si       0.92392    0.25799    0.09809    1.000
    Si5211   Si       0.89541    0.09407    0.21330    1.000
    N5212    N        0.88728    0.12069    0.17757    1.000
    Si5213   Si       0.91876    0.02378    0.19793    1.000
    N5214    N        0.90812    0.01286    0.15607    1.000
    N5215    N        0.92737    0.06552    0.21001    1.000
    N5216    N        0.89173    0.18364    0.24453    1.000
    Si5217   Si       0.89593    0.23341    0.16711    1.000
    Si5218   Si       0.91890    0.22197    0.24206    1.000
    N5219    N        0.92270    0.23667    0.19954    1.000
    Si5220   Si       0.91102    0.15481    0.15803    1.000
    N5221    N        0.88612    0.19160    0.16401    1.000
    N5222    N        0.92011    0.25616    0.14018    1.000
    N5223    N        0.88952    0.07683    0.32968    1.000
    Si5224   Si       0.91660    0.08525    0.36062    1.000
    Si5225   Si       0.88321    0.03540    0.31626    1.000
    N5226    N        0.91948    0.01349    0.31074    1.000
    N5227    N        0.90610    0.11237    0.25105    1.000
    Si5228   Si       0.90616    0.14935    0.26952    1.000
    Si5229   Si       0.90159    0.15825    0.34595    1.000
    N5230    N        0.88925    0.16580    0.30536    1.000
    Si5231   Si       0.88076    0.20737    0.28661    1.000
    N5232    N        0.88213    0.24400    0.25579    1.000
    N5233    N        0.89719    0.19742    0.36641    1.000
    N5234    N        0.92513    0.22174    0.29168    1.000
    N5235    N        0.92091    0.01251    0.43623    1.000
    N5236    N        0.90503    0.07874    0.40306    1.000
    Si5237   Si       0.89992    0.05191    0.43681    1.000
    Si5238   Si       0.88938    0.22203    0.41937    1.000
    N5239    N        0.88236    0.24738    0.45571    1.000
    N5240    N        0.90033    0.17562    0.48934    1.000
    N5241    N        0.92263    0.13891    0.43521    1.000
    Si5242   Si       0.88457    0.15198    0.45649    1.000
    N5243    N        0.87148    0.25089    0.38959    1.000
    Si5244   Si       0.89488    0.09319    0.56150    1.000
    N5245    N        0.89462    0.08439    0.51813    1.000
    Si5246   Si       0.89076    0.02592    0.58586    1.000
    N5247    N        0.91262    0.06235    0.58674    1.000
    N5248    N        0.92033    0.12808    0.57128    1.000
    Si5249   Si       0.91439    0.13328    0.61568    1.000
    Si5250   Si       0.90159    0.20711    0.52188    1.000
    N5251    N        0.91813    0.24744    0.51287    1.000
    N5252    N        0.88012    0.15911    0.60971    1.000
    Si5253   Si       0.86912    0.25068    0.57156    1.000
    N5254    N        0.88035    0.01310    0.62813    1.000
    N5255    N        0.89815    0.05752    0.68571    1.000
    Si5256   Si       0.90438    0.09947    0.68055    1.000
    N5257    N        0.92083    0.09948    0.64122    1.000
    Si5258   Si       0.87982    0.03176    0.72320    1.000
    N5259    N        0.92560    0.11653    0.71422    1.000
    N5260    N        0.91820    0.00960    0.72072    1.000
    N5261    N        0.88183    0.16824    0.72993    1.000
    Si5262   Si       0.88166    0.19825    0.63003    1.000
    N5263    N        0.92025    0.20923    0.64421    1.000
    N5264    N        0.89964    0.12247    0.78111    1.000
    Si5265   Si       0.90770    0.11138    0.82272    1.000
    N5266    N        0.91417    0.06825    0.82028    1.000
    Si5267   Si       0.91983    0.05283    0.78040    1.000
    N5268    N        0.88022    0.05897    0.75948    1.000
    Si5269   Si       0.92314    0.03778    0.85070    1.000
    N5270    N        0.89329    0.20751    0.78016    1.000
    N5271    N        0.91444    0.23652    0.84754    1.000
    Si5272   Si       0.91426    0.14437    0.74569    1.000
    N5273    N        0.88631    0.03411    0.87265    1.000
    Si5274   Si       0.87689    0.08397    0.95968    1.000
    N5275    N        0.90995    0.11492    0.95254    1.000
    N5276    N        0.89719    0.04991    0.93898    1.000
    Si5277   Si       0.87788    0.02085    0.91104    1.000
    Si5278   Si       0.91307    0.15080    0.92913    1.000
    N5279    N        0.90430    0.25023    0.97909    1.000
    Si5280   Si       0.92521    0.21158    0.97362    1.000
    N5281    N        0.89865    0.18180    0.95664    1.000
    N5282    N        0.89085    0.15926    0.89377    1.000
    Si5283   Si       0.90068    0.20186    0.87441    1.000
    N5284    N        0.87963    0.22586    0.90675    1.000
    Si5285   Si       0.90004    0.32742    0.09143    1.000
    N5286    N        0.89379    0.28646    0.07951    1.000
    N5287    N        0.88172    0.30977    0.00623    1.000
    Si5288   Si       0.90079    0.44216    0.06933    1.000
    N5289    N        0.90753    0.47632    0.09520    1.000
    N5290    N        0.91430    0.40419    0.08965    1.000
    N5291    N        0.92605    0.44903    0.03518    1.000
    N5292    N        0.90150    0.32970    0.13433    1.000
    Si5293   Si       0.91659    0.29693    0.15898    1.000
    N5294    N        0.88355    0.28991    0.18610    1.000
    Si5295   Si       0.88504    0.31784    0.21778    1.000
    N5296    N        0.91819    0.33478    0.23858    1.000
    N5297    N        0.87426    0.35615    0.19541    1.000
    N5298    N        0.91405    0.47185    0.22481    1.000
    N5299    N        0.92103    0.40148    0.22372    1.000
    Si5300   Si       0.88297    0.49881    0.20876    1.000
    Si5301   Si       0.87874    0.38890    0.22311    1.000
    Si5302   Si       0.89167    0.31621    0.33611    1.000
    N5303    N        0.89543    0.34878    0.30689    1.000
    N5304    N        0.88223    0.28366    0.31041    1.000
    Si5305   Si       0.92239    0.26298    0.30739    1.000
    N5306    N        0.92607    0.32137    0.36129    1.000
    Si5307   Si       0.92822    0.33664    0.28166    1.000
    N5308    N        0.89082    0.47798    0.29359    1.000
    Si5309   Si       0.91797    0.40714    0.34604    1.000
    N5310    N        0.88728    0.41598    0.31851    1.000
    Si5311   Si       0.88764    0.46518    0.33682    1.000
    N5312    N        0.91985    0.44864    0.36039    1.000
    Si5313   Si       0.92362    0.47964    0.26852    1.000
    N5314    N        0.88720    0.30509    0.48028    1.000
    Si5315   Si       0.90605    0.34273    0.46374    1.000
    Si5316   Si       0.91100    0.26835    0.47694    1.000
    N5317    N        0.87426    0.36931    0.44883    1.000
    N5318    N        0.92330    0.48245    0.42356    1.000
    N5319    N        0.90516    0.38214    0.37975    1.000
    N5320    N        0.87453    0.43134    0.41825    1.000
    Si5321   Si       0.90456    0.44885    0.44411    1.000
    N5322    N        0.88076    0.46752    0.47619    1.000
    Si5323   Si       0.87525    0.38892    0.41066    1.000
    N5324    N        0.88525    0.33321    0.60568    1.000
    Si5325   Si       0.91374    0.30961    0.58411    1.000
    N5326    N        0.91970    0.31367    0.54096    1.000
    N5327    N        0.90962    0.26610    0.58046    1.000
    Si5328   Si       0.87727    0.31717    0.52250    1.000
    N5329    N        0.90901    0.41965    0.52087    1.000
    N5330    N        0.88918    0.41987    0.58893    1.000
    Si5331   Si       0.92180    0.40926    0.56133    1.000
    Si5332   Si       0.87183    0.43829    0.50680    1.000
    N5333    N        0.89782    0.27104    0.66168    1.000
    N5334    N        0.89815    0.34005    0.67278    1.000
    Si5335   Si       0.89501    0.30222    0.69265    1.000
    Si5336   Si       0.91625    0.34444    0.63497    1.000
    N5337    N        0.90808    0.46679    0.70356    1.000
    Si5338   Si       0.92332    0.48648    0.66702    1.000
    N5339    N        0.87792    0.40643    0.66507    1.000
    N5340    N        0.90876    0.41105    0.72707    1.000
    Si5341   Si       0.90248    0.41469    0.63017    1.000
    N5342    N        0.92205    0.45281    0.64056    1.000
    Si5343   Si       0.88120    0.43437    0.69817    1.000
    N5344    N        0.91455    0.30616    0.81702    1.000
    Si5345   Si       0.89752    0.34144    0.80319    1.000
    Si5346   Si       0.89361    0.27300    0.83507    1.000
    N5347    N        0.91503    0.35826    0.76737    1.000
    N5348    N        0.89297    0.36942    0.83369    1.000
    Si5349   Si       0.88673    0.38338    0.74856    1.000
    N5350    N        0.90246    0.49884    0.82094    1.000
    N5351    N        0.87438    0.43885    0.83748    1.000
    Si5352   Si       0.91397    0.50916    0.86051    1.000
    N5353    N        0.87817    0.29860    0.93305    1.000
    N5354    N        0.89258    0.35989    0.95796    1.000
    Si5355   Si       0.91191    0.32922    0.93517    1.000
    Si5356   Si       0.89363    0.36927    0.87747    1.000
    Si5357   Si       0.89266    0.26731    0.90471    1.000
    Si5358   Si       0.91817    0.28928    0.99100    1.000
    N5359    N        0.92626    0.34748    0.89733    1.000
    N5360    N        0.87573    0.28805    0.87069    1.000
    Si5361   Si       0.88625    0.44399    0.87964    1.000
    N5362    N        0.92424    0.41685    0.96767    1.000
    N5363    N        0.92061    0.46810    0.87697    1.000
    N5364    N        0.89176    0.40672    0.90156    1.000
    Si5365   Si       0.89033    0.40063    0.94453    1.000
    N5366    N        0.88926    0.55312    0.07689    1.000
    Si5367   Si       0.88667    0.57712    0.04034    1.000
    N5368    N        0.92535    0.58650    0.02421    1.000
    Si5369   Si       0.88265    0.51146    0.08574    1.000
    N5370    N        0.89445    0.63725    0.10088    1.000
    Si5371   Si       0.88670    0.64961    0.05730    1.000
    N5372    N        0.90155    0.72775    0.01365    1.000
    N5373    N        0.91297    0.72083    0.08439    1.000
    Si5374   Si       0.90222    0.74613    0.05140    1.000
    N5375    N        0.92371    0.65691    0.03360    1.000
    Si5376   Si       0.91493    0.68785    0.00259    1.000
    N5377    N        0.89334    0.59381    0.16166    1.000
    N5378    N        0.90267    0.53241    0.18960    1.000
    Si5379   Si       0.87670    0.56646    0.18895    1.000
    Si5380   Si       0.89531    0.73942    0.23031    1.000
    N5381    N        0.87324    0.75077    0.19434    1.000
    N5382    N        0.87315    0.64769    0.23839    1.000
    N5383    N        0.91612    0.70402    0.24770    1.000
    Si5384   Si       0.89045    0.59009    0.31662    1.000
    N5385    N        0.91468    0.60770    0.28580    1.000
    N5386    N        0.91917    0.57301    0.34870    1.000
    N5387    N        0.89487    0.50856    0.35058    1.000
    Si5388   Si       0.92412    0.53378    0.37071    1.000
    Si5389   Si       0.90183    0.61218    0.24413    1.000
    N5390    N        0.90423    0.74652    0.31315    1.000
    Si5391   Si       0.90946    0.70295    0.32425    1.000
    N5392    N        0.88300    0.67415    0.30477    1.000
    Si5393   Si       0.88032    0.68353    0.26113    1.000
    N5394    N        0.90383    0.70603    0.36792    1.000
    N5395    N        0.88404    0.60038    0.43876    1.000
    Si5396   Si       0.91862    0.52245    0.44393    1.000
    N5397    N        0.87978    0.53467    0.46146    1.000
    N5398    N        0.92402    0.55046    0.41175    1.000
    Si5399   Si       0.92627    0.59076    0.42936    1.000
    Si5400   Si       0.93254    0.73293    0.38712    1.000
    Si5401   Si       0.92602    0.68757    0.44925    1.000
    N5402    N        0.87407    0.64191    0.49331    1.000
    N5403    N        0.89319    0.67014    0.42847    1.000
    N5404    N        0.90225    0.70490    0.48229    1.000
    Si5405   Si       0.87458    0.69349    0.39649    1.000
    N5406    N        0.90683    0.57566    0.51913    1.000
    N5407    N        0.90812    0.55198    0.58442    1.000
    Si5408   Si       0.89909    0.58727    0.56048    1.000
    Si5409   Si       0.87769    0.55091    0.50266    1.000
    N5410    N        0.92004    0.62197    0.57181    1.000
    Si5411   Si       0.87428    0.52374    0.57778    1.000
    Si5412   Si       0.90121    0.67132    0.51093    1.000
    Si5413   Si       0.90245    0.65761    0.58997    1.000
    N5414    N        0.88875    0.67888    0.55278    1.000
    N5415    N        0.87937    0.73791    0.59221    1.000
    N5416    N        0.91158    0.52469    0.65067    1.000
    Si5417   Si       0.90240    0.55848    0.67768    1.000
    N5418    N        0.88243    0.58721    0.65300    1.000
    N5419    N        0.87768    0.54065    0.71062    1.000
    Si5420   Si       0.88681    0.62741    0.73646    1.000
    Si5421   Si       0.88459    0.62952    0.66246    1.000
    Si5422   Si       0.87807    0.73633    0.63585    1.000
    N5423    N        0.87807    0.65389    0.62595    1.000
    N5424    N        0.92830    0.64030    0.74096    1.000
    N5425    N        0.91456    0.72110    0.65724    1.000
    N5426    N        0.92076    0.64917    0.67520    1.000
    Si5427   Si       0.89547    0.61310    0.84169    1.000
    Si5428   Si       0.88690    0.54660    0.75153    1.000
    N5429    N        0.87951    0.59057    0.75786    1.000
    N5430    N        0.92059    0.52307    0.76260    1.000
    N5431    N        0.92189    0.62542    0.81081    1.000
    N5432    N        0.91372    0.58684    0.87109    1.000
    Si5433   Si       0.91069    0.73394    0.78442    1.000
    Si5434   Si       0.91364    0.65565    0.78116    1.000
    N5435    N        0.88740    0.65216    0.86202    1.000
    N5436    N        0.87287    0.72670    0.76409    1.000
    N5437    N        0.87339    0.65674    0.76432    1.000
    N5438    N        0.92986    0.69608    0.78349    1.000
    Si5439   Si       0.87241    0.56444    0.97027    1.000
    N5440    N        0.88688    0.52844    0.88770    1.000
    Si5441   Si       0.88926    0.56909    0.90253    1.000
    N5442    N        0.90869    0.57236    0.94126    1.000
    N5443    N        0.87880    0.67549    0.98203    1.000
    Si5444   Si       0.87391    0.73105    0.88502    1.000
    N5445    N        0.92044    0.66924    0.92047    1.000
    Si5446   Si       0.88224    0.68293    0.93856    1.000
    N5447    N        0.91316    0.71460    0.87120    1.000
    Si5448   Si       0.92154    0.67338    0.87765    1.000
    N5449    N        0.90091    0.80574    0.08609    1.000
    N5450    N        0.91738    0.85431    0.03929    1.000
    Si5451   Si       0.87791    0.85935    0.01884    1.000
    Si5452   Si       0.93082    0.81564    0.05471    1.000
    Si5453   Si       0.91967    0.76784    0.99601    1.000
    N5454    N        0.91737    0.91521    0.00529    1.000
    N5455    N        0.90955    0.91599    0.07444    1.000
    N5456    N        0.91130    0.97586    0.10316    1.000
    Si5457   Si       0.90499    0.98878    0.05881    1.000
    Si5458   Si       0.92150    0.93287    0.11175    1.000
    N5459    N        0.87805    0.96330    0.03556    1.000
    Si5460   Si       0.90961    0.95749    0.00312    1.000
    N5461    N        0.91749    0.77276    0.15010    1.000
    Si5462   Si       0.91291    0.81024    0.12825    1.000
    N5463    N        0.91423    0.81466    0.19914    1.000
    Si5464   Si       0.88959    0.84344    0.22617    1.000
    Si5465   Si       0.88153    0.79194    0.17982    1.000
    N5466    N        0.87900    0.87962    0.20078    1.000
    N5467    N        0.87335    0.81912    0.14453    1.000
    Si5468   Si       0.87512    0.96422    0.20433    1.000
    N5469    N        0.88364    0.00514    0.21803    1.000
    Si5470   Si       0.87888    0.98947    0.13156    1.000
    Si5471   Si       0.91154    0.90287    0.18234    1.000
    N5472    N        0.91181    0.94166    0.20137    1.000
    N5473    N        0.89595    0.90907    0.14098    1.000
    N5474    N        0.90709    0.81654    0.31074    1.000
    Si5475   Si       0.91272    0.77995    0.28852    1.000
    Si5476   Si       0.88122    0.84975    0.29844    1.000
    N5477    N        0.89273    0.77861    0.24955    1.000
    N5478    N        0.92590    0.85124    0.24732    1.000
    N5479    N        0.89183    0.89152    0.30665    1.000
    Si5480   Si       0.91165    0.96967    0.30403    1.000
    Si5481   Si       0.92042    0.90251    0.33572    1.000
    N5482    N        0.87368    0.95661    0.31726    1.000
    N5483    N        0.90876    0.76737    0.39618    1.000
    N5484    N        0.91222    0.80024    0.45645    1.000
    N5485    N        0.91237    0.83062    0.38415    1.000
    Si5486   Si       0.88558    0.86102    0.39497    1.000
    Si5487   Si       0.87909    0.87624    0.47292    1.000
    N5488    N        0.89471    0.87783    0.43435    1.000
    Si5489   Si       0.92699    0.80306    0.41481    1.000
    N5490    N        0.90151    0.89775    0.37592    1.000
    N5491    N        0.90829    0.97634    0.37919    1.000
    Si5492   Si       0.89367    0.98050    0.42245    1.000
    N5493    N        0.90514    0.94308    0.44040    1.000
    Si5494   Si       0.92151    0.91178    0.41292    1.000
    Si5495   Si       0.90438    0.77109    0.57785    1.000
    Si5496   Si       0.89659    0.85378    0.58239    1.000
    N5497    N        0.89919    0.77524    0.53482    1.000
    N5498    N        0.89024    0.81087    0.58864    1.000
    Si5499   Si       0.92161    0.79051    0.49976    1.000
    N5500    N        0.90052    0.85718    0.62543    1.000
    N5501    N        0.92885    0.87683    0.56539    1.000
    N5502    N        0.92661    0.99693    0.58573    1.000
    N5503    N        0.90839    0.89678    0.49661    1.000
    Si5504   Si       0.87744    0.81898    0.63295    1.000
    Si5505   Si       0.88778    0.79045    0.69225    1.000
    N5506    N        0.89300    0.79145    0.73499    1.000
    N5507    N        0.87925    0.87028    0.73800    1.000
    N5508    N        0.88188    0.77838    0.64529    1.000
    N5509    N        0.87435    0.83116    0.68028    1.000
    Si5510   Si       0.92487    0.88301    0.64883    1.000
    N5511    N        0.87835    0.95569    0.71509    1.000
    Si5512   Si       0.89343    0.94554    0.67630    1.000
    Si5513   Si       0.92350    0.99722    0.62839    1.000
    Si5514   Si       0.90815    0.97176    0.74089    1.000
    N5515    N        0.92648    0.96673    0.66064    1.000
    N5516    N        0.89911    0.90286    0.67756    1.000
    N5517    N        0.90157    0.82905    0.85437    1.000
    Si5518   Si       0.90636    0.86358    0.77298    1.000
    N5519    N        0.89595    0.76753    0.81199    1.000
    Si5520   Si       0.92038    0.80164    0.82505    1.000
    N5521    N        0.92072    0.82559    0.78858    1.000
    N5522    N        0.88215    0.88244    0.80377    1.000
    Si5523   Si       0.87168    0.92428    0.79383    1.000
    N5524    N        0.90526    0.94705    0.77891    1.000
    N5525    N        0.90940    0.92993    0.86750    1.000
    Si5526   Si       0.90170    0.81527    0.95210    1.000
    N5527    N        0.89102    0.85904    0.97710    1.000
    N5528    N        0.88459    0.77808    0.96740    1.000
    Si5529   Si       0.88265    0.94750    0.93401    1.000
    Si5530   Si       0.92180    0.89086    0.96994    1.000
    N5531    N        0.90253    0.98267    0.91258    1.000
    N5532    N        0.91166    0.91279    0.93517    1.000
    N5533    N        0.87393    0.96040    0.97360    1.000
    Si5534   Si       0.92392    0.96853    0.87660    1.000
    N5535    N        0.95728    0.07374    0.04997    1.000
    N5536    N        0.94322    0.04145    0.10539    1.000
    Si5537   Si       0.93415    0.12670    0.09337    1.000
    N5538    N        0.96317    0.13518    0.99863    1.000
    N5539    N        0.98008    0.03606    0.99335    1.000
    N5540    N        0.94400    0.20143    0.01422    1.000
    N5541    N        0.96338    0.15101    0.06939    1.000
    Si5542   Si       0.94939    0.23750    0.03986    1.000
    Si5543   Si       0.94458    0.16008    0.03004    1.000
    N5544    N        0.95918    0.10625    0.12486    1.000
    Si5545   Si       0.97159    0.06424    0.13164    1.000
    N5546    N        0.96997    0.04289    0.17005    1.000
    N5547    N        0.97577    0.10781    0.23024    1.000
    Si5548   Si       0.97402    0.07093    0.20470    1.000
    Si5549   Si       0.97782    0.12796    0.15830    1.000
    N5550    N        0.97381    0.20780    0.16665    1.000
    Si5551   Si       0.95843    0.25142    0.17208    1.000
    N5552    N        0.94868    0.15100    0.18174    1.000
    N5553    N        0.95987    0.20779    0.24024    1.000
    Si5554   Si       0.96669    0.18424    0.20240    1.000
    N5555    N        0.95003    0.05897    0.35216    1.000
    Si5556   Si       0.95209    0.04068    0.31346    1.000
    Si5557   Si       0.94962    0.10828    0.26348    1.000
    N5558    N        0.96398    0.07560    0.28690    1.000
    N5559    N        0.92947    0.12768    0.36038    1.000
    N5560    N        0.93410    0.25711    0.34923    1.000
    N5561    N        0.95017    0.14827    0.28205    1.000
    Si5562   Si       0.95673    0.18894    0.29602    1.000
    N5563    N        0.95473    0.18513    0.34004    1.000
    Si5564   Si       0.96760    0.14827    0.36256    1.000
    Si5565   Si       0.93555    0.21745    0.36662    1.000
    N5566    N        0.98320    0.01517    0.47882    1.000
    N5567    N        0.98012    0.02953    0.40918    1.000
    N5568    N        0.97513    0.09685    0.40686    1.000
    Si5569   Si       0.95773    0.03094    0.44634    1.000
    Si5570   Si       0.93606    0.09973    0.42557    1.000
    Si5571   Si       0.98247    0.06260    0.38232    1.000
    N5572    N        0.93545    0.06868    0.45847    1.000
    Si5573   Si       0.96626    0.24668    0.42833    1.000
    N5574    N        0.96950    0.17688    0.47030    1.000
    N5575    N        0.98044    0.15961    0.40356    1.000
    Si5576   Si       0.94952    0.17559    0.43027    1.000
    N5577    N        0.93992    0.21604    0.41169    1.000
    N5578    N        0.96694    0.06585    0.52471    1.000
    N5579    N        0.97897    0.08546    0.60321    1.000
    N5580    N        0.94972    0.12242    0.50596    1.000
    Si5581   Si       0.97336    0.10599    0.53941    1.000
    Si5582   Si       0.93386    0.08086    0.49950    1.000
    Si5583   Si       0.94211    0.06754    0.61837    1.000
    Si5584   Si       0.94826    0.16490    0.57284    1.000
    N5585    N        0.96395    0.20421    0.59269    1.000
    Si5586   Si       0.98197    0.24279    0.59451    1.000
    N5587    N        0.93705    0.18624    0.53656    1.000
    N5588    N        0.98360    0.14010    0.56474    1.000
    Si5589   Si       0.94031    0.16234    0.49942    1.000
    Si5590   Si       0.96332    0.09725    0.72499    1.000
    N5591    N        0.94569    0.03160    0.64298    1.000
    N5592    N        0.97013    0.06263    0.69827    1.000
    Si5593   Si       0.93908    0.03319    0.68953    1.000
    Si5594   Si       0.98611    0.01149    0.64728    1.000
    N5595    N        0.96131    0.24117    0.69190    1.000
    Si5596   Si       0.95805    0.19032    0.63484    1.000
    Si5597   Si       0.93469    0.24719    0.65797    1.000
    N5598    N        0.95192    0.15123    0.61917    1.000
    Si5599   Si       0.96669    0.08831    0.85185    1.000
    N5600    N        0.95305    0.07344    0.75928    1.000
    N5601    N        0.94355    0.12451    0.84230    1.000
    Si5602   Si       0.97783    0.04343    0.78008    1.000
    N5603    N        0.94310    0.01780    0.78579    1.000
    N5604    N        0.98134    0.06203    0.81933    1.000
    N5605    N        0.95567    0.18730    0.81187    1.000
    Si5606   Si       0.95817    0.16475    0.85039    1.000
    N5607    N        0.95089    0.24180    0.76205    1.000
    Si5608   Si       0.93692    0.20320    0.77714    1.000
    N5609    N        0.94784    0.17077    0.74904    1.000
    Si5610   Si       0.95481    0.24126    0.86683    1.000
    N5611    N        0.94360    0.06492    0.88017    1.000
    Si5612   Si       0.95320    0.11801    0.96037    1.000
    N5613    N        0.96272    0.01994    0.92759    1.000
    N5614    N        0.96881    0.08113    0.94638    1.000
    Si5615   Si       0.93728    0.05589    0.92203    1.000
    Si5616   Si       0.96986    0.25625    0.92765    1.000
    Si5617   Si       0.97483    0.19221    0.91586    1.000
    N5618    N        0.95690    0.15051    0.92948    1.000
    N5619    N        0.95831    0.21884    0.94738    1.000
    N5620    N        0.94540    0.19430    0.87946    1.000
    Si5621   Si       0.95898    0.30459    0.05815    1.000
    N5622    N        0.96285    0.27927    0.09223    1.000
    N5623    N        0.94283    0.27952    0.02657    1.000
    N5624    N        0.93601    0.33770    0.07290    1.000
    Si5625   Si       0.94640    0.38053    0.07451    1.000
    N5626    N        0.95538    0.38619    0.03261    1.000
    Si5627   Si       0.98860    0.35908    0.02483    1.000
    Si5628   Si       0.96279    0.47488    0.03746    1.000
    Si5629   Si       0.94714    0.49115    0.10772    1.000
    Si5630   Si       0.94057    0.41781    0.00841    1.000
    N5631    N        0.98252    0.38795    0.09803    1.000
    N5632    N        0.98581    0.49824    0.00934    1.000
    N5633    N        0.96211    0.50423    0.07106    1.000
    N5634    N        0.95337    0.29455    0.17960    1.000
    N5635    N        0.97549    0.35914    0.19956    1.000
    Si5636   Si       0.94527    0.36642    0.22893    1.000
    N5637    N        0.97192    0.43235    0.19036    1.000
    N5638    N        0.97715    0.46012    0.12342    1.000
    N5639    N        0.97591    0.50278    0.18224    1.000
    Si5640   Si       0.94125    0.43812    0.22280    1.000
    Si5641   Si       0.98908    0.46428    0.16581    1.000
    N5642    N        0.94198    0.29753    0.29157    1.000
    Si5643   Si       0.95647    0.29064    0.36281    1.000
    N5644    N        0.95457    0.37129    0.27285    1.000
    Si5645   Si       0.98529    0.29755    0.29446    1.000
    Si5646   Si       0.97396    0.40536    0.29138    1.000
    N5647    N        0.95919    0.40282    0.33236    1.000
    N5648    N        0.95908    0.44273    0.26566    1.000
    Si5649   Si       0.98821    0.47635    0.27415    1.000
    Si5650   Si       0.98542    0.40657    0.36906    1.000
    N5651    N        0.95653    0.50673    0.27362    1.000
    N5652    N        0.93066    0.33251    0.42958    1.000
    N5653    N        0.96969    0.28107    0.40081    1.000
    N5654    N        0.94847    0.27259    0.45921    1.000
    N5655    N        0.97221    0.37112    0.39210    1.000
    Si5656   Si       0.96378    0.30662    0.43993    1.000
    Si5657   Si       0.93420    0.35307    0.39063    1.000
    N5658    N        0.93360    0.36071    0.49233    1.000
    Si5659   Si       0.94125    0.40374    0.49341    1.000
    N5660    N        0.97383    0.43851    0.39739    1.000
    Si5661   Si       0.97460    0.50127    0.48909    1.000
    Si5662   Si       0.97346    0.43568    0.43956    1.000
    Si5663   Si       0.94408    0.46957    0.38837    1.000
    N5664    N        0.93593    0.42530    0.45751    1.000
    Si5665   Si       0.95077    0.34222    0.52843    1.000
    N5666    N        0.94281    0.37097    0.55906    1.000
    N5667    N        0.97344    0.27007    0.56155    1.000
    N5668    N        0.94583    0.32534    0.61016    1.000
    Si5669   Si       0.96077    0.36575    0.59856    1.000
    Si5670   Si       0.93350    0.27058    0.54449    1.000
    Si5671   Si       0.97971    0.44335    0.54479    1.000
    N5672    N        0.95303    0.43347    0.57736    1.000
    Si5673   Si       0.95442    0.45934    0.61283    1.000
    N5674    N        0.96752    0.48219    0.52734    1.000
    N5675    N        0.94989    0.49838    0.59619    1.000
    N5676    N        0.97951    0.41482    0.51306    1.000
    Si5677   Si       0.97904    0.30452    0.62806    1.000
    N5678    N        0.97046    0.36134    0.72396    1.000
    Si5679   Si       0.96467    0.32194    0.70636    1.000
    Si5680   Si       0.95371    0.26467    0.72764    1.000
    N5681    N        0.96693    0.26284    0.62847    1.000
    N5682    N        0.93031    0.29838    0.71406    1.000
    N5683    N        0.96606    0.49658    0.67844    1.000
    N5684    N        0.93223    0.38437    0.62684    1.000
    Si5685   Si       0.93523    0.44360    0.73102    1.000
    N5686    N        0.97508    0.43639    0.70974    1.000
    N5687    N        0.97070    0.32083    0.78199    1.000
    Si5688   Si       0.95757    0.30935    0.82039    1.000
    N5689    N        0.96442    0.34618    0.84244    1.000
    Si5690   Si       0.95979    0.35850    0.76478    1.000
    N5691    N        0.97036    0.27075    0.83878    1.000
    Si5692   Si       0.98571    0.38290    0.83331    1.000
    N5693    N        0.97537    0.39071    0.78831    1.000
    N5694    N        0.97021    0.42640    0.83981    1.000
    Si5695   Si       0.97054    0.44463    0.79933    1.000
    N5696    N        0.93796    0.45377    0.77055    1.000
    N5697    N        0.96733    0.48713    0.81182    1.000
    Si5698   Si       0.93162    0.49360    0.79081    1.000
    N5699    N        0.98712    0.34839    0.98402    1.000
    Si5700   Si       0.96889    0.35039    0.88503    1.000
    N5701    N        0.94175    0.30670    0.95980    1.000
    N5702    N        0.93725    0.26558    0.90154    1.000
    Si5703   Si       0.98392    0.31670    0.95456    1.000
    N5704    N        0.97952    0.43378    0.98933    1.000
    N5705    N        0.96917    0.43131    0.91216    1.000
    N5706    N        0.94515    0.48436    0.95321    1.000
    Si5707   Si       0.95441    0.44167    0.95063    1.000
    Si5708   Si       0.96083    0.45024    0.87444    1.000
    N5709    N        0.96023    0.60203    0.09956    1.000
    Si5710   Si       0.94494    0.62216    0.01323    1.000
    Si5711   Si       0.99024    0.59992    0.06814    1.000
    N5712    N        0.98172    0.63022    0.03664    1.000
    Si5713   Si       0.93743    0.63861    0.11092    1.000
    N5714    N        0.97493    0.71162    0.03383    1.000
    Si5715   Si       0.96562    0.67126    0.04853    1.000
    N5716    N        0.95884    0.67294    0.09120    1.000
    Si5717   Si       0.94968    0.71375    0.10436    1.000
    N5718    N        0.98084    0.74688    0.09369    1.000
    Si5719   Si       0.97494    0.75550    0.05145    1.000
    Si5720   Si       0.96161    0.56431    0.12342    1.000
    N5721    N        0.95976    0.57191    0.16904    1.000
    Si5722   Si       0.94324    0.53235    0.17403    1.000
    N5723    N        0.93975    0.52733    0.13045    1.000
    N5724    N        0.93579    0.61565    0.21839    1.000
    Si5725   Si       0.93343    0.60732    0.17633    1.000
    Si5726   Si       0.96703    0.67561    0.16143    1.000
    N5727    N        0.94940    0.71206    0.14701    1.000
    N5728    N        0.96863    0.67820    0.20602    1.000
    Si5729   Si       0.95528    0.71190    0.22811    1.000
    Si5730   Si       0.94914    0.75073    0.16774    1.000
    N5731    N        0.94191    0.75031    0.21148    1.000
    Si5732   Si       0.97206    0.63854    0.22684    1.000
    N5733    N        0.94162    0.64237    0.15270    1.000
    Si5734   Si       0.95664    0.61607    0.29485    1.000
    Si5735   Si       0.95639    0.59287    0.36256    1.000
    N5736    N        0.97626    0.57782    0.28971    1.000
    N5737    N        0.96696    0.62655    0.33608    1.000
    Si5738   Si       0.98238    0.54074    0.26688    1.000
    N5739    N        0.98745    0.56461    0.35862    1.000
    N5740    N        0.95099    0.69026    0.32000    1.000
    N5741    N        0.97123    0.64688    0.26817    1.000
    Si5742   Si       0.98056    0.66660    0.34582    1.000
    Si5743   Si       0.97992    0.68384    0.28839    1.000
    N5744    N        0.98346    0.71287    0.25894    1.000
    N5745    N        0.94999    0.59474    0.46616    1.000
    N5746    N        0.94954    0.61338    0.39952    1.000
    N5747    N        0.94542    0.52895    0.47780    1.000
    Si5748   Si       0.96591    0.63234    0.48630    1.000
    N5749    N        0.96013    0.50772    0.37363    1.000
    Si5750   Si       0.98972    0.71434    0.41045    1.000
    N5751    N        0.98397    0.67290    0.38801    1.000
    Si5752   Si       0.97776    0.64144    0.41713    1.000
    N5753    N        0.95664    0.65786    0.45267    1.000
    N5754    N        0.94455    0.71637    0.42596    1.000
    N5755    N        0.97330    0.74186    0.37769    1.000
    N5756    N        0.96781    0.54529    0.53786    1.000
    Si5757   Si       0.94747    0.56675    0.50269    1.000
    N5758    N        0.97299    0.60422    0.52353    1.000
    Si5759   Si       0.93505    0.53521    0.61581    1.000
    Si5760   Si       0.97404    0.50911    0.56028    1.000
    Si5761   Si       0.95546    0.63414    0.55055    1.000
    N5762    N        0.93732    0.67965    0.60929    1.000
    N5763    N        0.93950    0.65711    0.51587    1.000
    Si5764   Si       0.97779    0.68742    0.59427    1.000
    N5765    N        0.97094    0.55245    0.63347    1.000
    N5766    N        0.93974    0.56548    0.69730    1.000
    Si5767   Si       0.97053    0.53944    0.67490    1.000
    Si5768   Si       0.97243    0.58081    0.71984    1.000
    N5769    N        0.98064    0.62097    0.70761    1.000
    Si5770   Si       0.95290    0.65352    0.70690    1.000
    N5771    N        0.97604    0.74772    0.64993    1.000
    N5772    N        0.98277    0.67650    0.73624    1.000
    Si5773   Si       0.93356    0.68415    0.65181    1.000
    N5774    N        0.97192    0.68166    0.67467    1.000
    N5775    N        0.98040    0.59416    0.84445    1.000
    N5776    N        0.94914    0.53404    0.85999    1.000
    Si5777   Si       0.98153    0.51303    0.84219    1.000
    N5778    N        0.98301    0.59092    0.76072    1.000
    Si5779   Si       0.96197    0.62949    0.82644    1.000
    Si5780   Si       0.97103    0.68837    0.77737    1.000
    N5781    N        0.97959    0.64808    0.79216    1.000
    N5782    N        0.95869    0.65455    0.86122    1.000
    Si5783   Si       0.95363    0.57429    0.87189    1.000
    N5784    N        0.95068    0.61879    0.97171    1.000
    N5785    N        0.96580    0.59657    0.90763    1.000
    N5786    N        0.97283    0.55267    0.97066    1.000
    Si5787   Si       0.95134    0.58176    0.94688    1.000
    Si5788   Si       0.98623    0.63174    0.88699    1.000
    Si5789   Si       0.97806    0.50818    0.96683    1.000
    Si5790   Si       0.97600    0.71755    0.98894    1.000
    N5791    N        0.95158    0.68441    0.97950    1.000
    N5792    N        0.95198    0.74904    0.97343    1.000
    Si5793   Si       0.95204    0.65546    0.94652    1.000
    N5794    N        0.98735    0.65856    0.92167    1.000
    N5795    N        0.96848    0.82051    0.07335    1.000
    Si5796   Si       0.98457    0.83420    0.11148    1.000
    N5797    N        0.93387    0.77262    0.03981    1.000
    N5798    N        0.94140    0.98079    0.03453    1.000
    N5799    N        0.97257    0.90230    0.04811    1.000
    N5800    N        0.96217    0.92131    0.11593    1.000
    Si5801   Si       0.96646    0.99336    0.00155    1.000
    Si5802   Si       0.93056    0.89744    0.04269    1.000
    Si5803   Si       0.94709    0.83954    0.18421    1.000
    N5804    N        0.94767    0.83405    0.13740    1.000
    N5805    N        0.97408    0.81207    0.20597    1.000
    Si5806   Si       0.93896    0.79160    0.22786    1.000
    N5807    N        0.95050    0.99777    0.21168    1.000
    N5808    N        0.95151    0.88273    0.18756    1.000
    Si5809   Si       0.93848    0.00354    0.12666    1.000
    Si5810   Si       0.94072    0.95985    0.22754    1.000
    Si5811   Si       0.98763    0.90306    0.20232    1.000
    Si5812   Si       0.97885    0.00169    0.17879    1.000
    N5813    N        0.97685    0.93624    0.22986    1.000
    N5814    N        0.97020    0.98073    0.14228    1.000
    N5815    N        0.96637    0.80244    0.33733    1.000
    N5816    N        0.95055    0.78842    0.26870    1.000
    N5817    N        0.94842    0.86766    0.33641    1.000
    Si5818   Si       0.98478    0.87012    0.31255    1.000
    Si5819   Si       0.96689    0.86203    0.25264    1.000
    Si5820   Si       0.98202    0.80167    0.29618    1.000
    Si5821   Si       0.93298    0.82728    0.34548    1.000
    Si5822   Si       0.97003    0.93684    0.27630    1.000
    N5823    N        0.96794    0.89504    0.28050    1.000
    N5824    N        0.93546    0.94243    0.32951    1.000
    N5825    N        0.98564    0.98333    0.35933    1.000
    N5826    N        0.93287    0.95977    0.26905    1.000
    Si5827   Si       0.94661    0.96347    0.36469    1.000
    Si5828   Si       0.98789    0.78472    0.37008    1.000
    N5829    N        0.97059    0.80234    0.40964    1.000
    N5830    N        0.98673    0.83810    0.47322    1.000
    Si5831   Si       0.98292    0.88115    0.47356    1.000
    N5832    N        0.95475    0.90131    0.44426    1.000
    N5833    N        0.95820    0.92873    0.39008    1.000
    N5834    N        0.95545    0.95254    0.48964    1.000
    Si5835   Si       0.92697    0.92603    0.47205    1.000
    Si5836   Si       0.97556    0.81739    0.51022    1.000
    N5837    N        0.93690    0.76942    0.60541    1.000
    N5838    N        0.93318    0.83014    0.51398    1.000
    Si5839   Si       0.93209    0.87265    0.52266    1.000
    N5840    N        0.96250    0.77522    0.50201    1.000
    Si5841   Si       0.97859    0.76057    0.60900    1.000
    N5842    N        0.97342    0.89143    0.51676    1.000
    Si5843   Si       0.96782    0.98280    0.57637    1.000
    N5844    N        0.96233    0.94162    0.56305    1.000
    Si5845   Si       0.95728    0.90317    0.58397    1.000
    Si5846   Si       0.97681    0.93544    0.52348    1.000
    N5847    N        0.97540    0.97947    0.62078    1.000
    N5848    N        0.95459    0.86011    0.67122    1.000
    N5849    N        0.96038    0.82367    0.73494    1.000
    Si5850   Si       0.96024    0.82127    0.69045    1.000
    N5851    N        0.93147    0.79113    0.67974    1.000
    Si5852   Si       0.93453    0.75983    0.65077    1.000
    N5853    N        0.94582    0.95249    0.73397    1.000
    N5854    N        0.94603    0.91049    0.62363    1.000
    N5855    N        0.98400    0.92819    0.67645    1.000
    Si5856   Si       0.97853    0.95991    0.70643    1.000
    N5857    N        0.98084    0.00019    0.68885    1.000
    Si5858   Si       0.96034    0.94422    0.64342    1.000
    Si5859   Si       0.98936    0.88466    0.67878    1.000
    N5860    N        0.95609    0.80297    0.85075    1.000
    N5861    N        0.94503    0.75993    0.76567    1.000
    Si5862   Si       0.97542    0.86203    0.74993    1.000
    Si5863   Si       0.93141    0.79831    0.75581    1.000
    N5864    N        0.94208    0.88496    0.76711    1.000
    N5865    N        0.97103    0.94634    0.79875    1.000
    Si5866   Si       0.94237    0.92851    0.77202    1.000
    Si5867   Si       0.96046    0.98794    0.81398    1.000
    N5868    N        0.93985    0.99828    0.85033    1.000
    N5869    N        0.96118    0.87410    0.96277    1.000
    Si5870   Si       0.95602    0.78515    0.94840    1.000
    N5871    N        0.94631    0.87172    0.88595    1.000
    Si5872   Si       0.96711    0.83805    0.98340    1.000
    N5873    N        0.93522    0.80891    0.98343    1.000
    Si5874   Si       0.93419    0.82990    0.88321    1.000
    N5875    N        0.93196    0.80818    0.92102    1.000
    N5876    N        0.95606    0.95218    0.90358    1.000
    Si5877   Si       0.94103    0.98166    0.93242    1.000
    Si5878   Si       0.93389    0.91112    0.89774    1.000
    N5879    N        0.93734    0.97579    0.97402    1.000
