# CIF file generated by openbabel 3.1.1, see https://openbabel.org
data_I
_chemical_name_common '3.01-49.aims'
_cell_length_a 39.8835
_cell_length_b 39.8835
_cell_length_c 39.8835
_cell_angle_alpha 90
_cell_angle_beta 90
_cell_angle_gamma 90
loop_
    _atom_site_label
    _atom_site_type_symbol
    _atom_site_fract_x
    _atom_site_fract_y
    _atom_site_fract_z
    _atom_site_occupancy
    N0       N        0.02976    0.07881    0.10513    1.000
    Si1      Si       0.02243    0.06862    0.00605    1.000
    Si2      Si       0.99361    0.10028    0.10973    1.000
    Si3      Si       0.00945    0.03868    0.05815    1.000
    N4       N        0.04522    0.06462    0.04353    1.000
    N5       N        0.03654    0.00355    0.05475    1.000
    Si6      Si       0.04270    0.16712    0.04072    1.000
    N7       N        0.99786    0.18847    0.09967    1.000
    N8       N        0.00343    0.17922    0.02650    1.000
    Si9      Si       0.03398    0.16507    0.10530    1.000
    N10      N        0.99597    0.24042    0.05877    1.000
    Si11     Si       0.04055    0.24713    0.07135    1.000
    N12      N        0.04508    0.13799    0.07280    1.000
    N13      N        0.03385    0.06543    0.18332    1.000
    N14      N        0.03633    0.01539    0.13566    1.000
    Si15     Si       0.02361    0.06506    0.22547    1.000
    N16      N        0.03208    0.10483    0.24296    1.000
    Si17     Si       0.00639    0.13640    0.22739    1.000
    N18      N        0.01678    0.13355    0.13461    1.000
    N19      N        0.04675    0.03303    0.24355    1.000
    Si20     Si       0.04635    0.05631    0.14188    1.000
    Si21     Si       0.03325    0.19107    0.22281    1.000
    N22      N        0.01121    0.22692    0.21572    1.000
    Si23     Si       0.04911    0.14231    0.16117    1.000
    N24      N        0.02538    0.15719    0.19377    1.000
    Si25     Si       0.00467    0.07846    0.32562    1.000
    Si26     Si       0.01016    0.02251    0.34113    1.000
    N27      N        0.01743    0.05881    0.36429    1.000
    N28      N        0.03875    0.06848    0.29946    1.000
    N29      N        0.03239    0.12446    0.37168    1.000
    Si30     Si       0.99690    0.14397    0.35589    1.000
    Si31     Si       0.03121    0.24784    0.29282    1.000
    Si32     Si       0.02724    0.17569    0.29355    1.000
    N33      N        0.00284    0.17798    0.32880    1.000
    N34      N        0.01274    0.17162    0.25397    1.000
    N35      N        0.99136    0.24319    0.30665    1.000
    N36      N        0.99406    0.08691    0.42686    1.000
    N37      N        0.02281    0.05204    0.47319    1.000
    Si38     Si       0.02828    0.08871    0.39853    1.000
    Si39     Si       0.02568    0.09506    0.47144    1.000
    N40      N        0.99021    0.11065    0.49579    1.000
    N41      N        0.04372    0.12612    0.44278    1.000
    N42      N        0.00212    0.17228    0.46680    1.000
    N43      N        0.04573    0.19515    0.41311    1.000
    N44      N        0.99509    0.23873    0.37596    1.000
    Si45     Si       0.04182    0.17014    0.44805    1.000
    N46      N        0.01726    0.24023    0.45589    1.000
    Si47     Si       0.02196    0.23464    0.41257    1.000
    N48      N        0.01312    0.08629    0.56568    1.000
    Si49     Si       0.01778    0.11237    0.53122    1.000
    Si50     Si       0.04516    0.10135    0.59224    1.000
    Si51     Si       0.03937    0.02144    0.49786    1.000
    N52      N        0.00904    0.15110    0.54988    1.000
    N53      N        0.00814    0.24552    0.58977    1.000
    Si54     Si       0.04013    0.22857    0.53124    1.000
    Si55     Si       0.03915    0.16735    0.57578    1.000
    N56      N        0.00196    0.21321    0.51831    1.000
    N57      N        0.02552    0.18498    0.61329    1.000
    Si58     Si       0.99249    0.02771    0.64396    1.000
    N59      N        0.01754    0.07438    0.74071    1.000
    N60      N        0.02383    0.11120    0.62892    1.000
    N61      N        0.03741    0.03720    0.64823    1.000
    Si62     Si       0.02180    0.08006    0.65878    1.000
    Si63     Si       0.00159    0.11539    0.74132    1.000
    N64      N        0.01224    0.01252    0.71023    1.000
    Si65     Si       0.99216    0.04032    0.73834    1.000
    N66      N        0.02926    0.16432    0.67509    1.000
    N67      N        0.02248    0.25414    0.65654    1.000
    Si68     Si       0.03321    0.23125    0.62166    1.000
    N69      N        0.03364    0.14411    0.73419    1.000
    Si70     Si       0.01591    0.18143    0.71393    1.000
    Si71     Si       0.00949    0.15247    0.63769    1.000
    N72      N        0.03663    0.21668    0.72024    1.000
    Si73     Si       0.04210    0.25180    0.69332    1.000
    Si74     Si       0.02650    0.02979    0.79942    1.000
    Si75     Si       0.01613    0.10749    0.81350    1.000
    N76      N        0.02893    0.06821    0.81523    1.000
    N77      N        0.99988    0.11152    0.85253    1.000
    N78      N        0.99416    0.01693    0.77589    1.000
    Si79     Si       0.02874    0.24136    0.82644    1.000
    N80      N        0.04063    0.24719    0.78562    1.000
    Si81     Si       0.99261    0.15296    0.86212    1.000
    N82      N        0.03659    0.04927    0.97062    1.000
    Si83     Si       0.01445    0.03646    0.93341    1.000
    N84      N        0.00679    0.07520    0.91629    1.000
    N85      N        0.02006    0.10746    0.98776    1.000
    Si86     Si       0.99922    0.10153    0.94980    1.000
    N87      N        0.03553    0.01259    0.90178    1.000
    N88      N        0.01803    0.20380    0.94665    1.000
    N89      N        0.02552    0.16891    0.88430    1.000
    N90      N        0.98937    0.14344    0.94244    1.000
    Si91     Si       0.01227    0.24865    0.94735    1.000
    Si92     Si       0.02491    0.16555    0.92767    1.000
    Si93     Si       0.99790    0.19733    0.98638    1.000
    N94      N        0.01009    0.23691    0.99597    1.000
    Si95     Si       0.03025    0.36027    0.06210    1.000
    N96      N        0.03691    0.34603    0.02066    1.000
    N97      N        0.03739    0.26813    0.10954    1.000
    Si98     Si       0.99865    0.26839    0.02526    1.000
    N99      N        0.04202    0.27477    0.03426    1.000
    N100     N        0.99597    0.45032    0.00843    1.000
    Si101    Si       0.02278    0.42707    0.10657    1.000
    Si102    Si       0.03382    0.47084    0.01040    1.000
    Si103    Si       0.03048    0.49883    0.11073    1.000
    N104     N        0.03656    0.40297    0.07268    1.000
    N105     N        0.01310    0.50755    0.02364    1.000
    N106     N        0.04992    0.46165    0.10712    1.000
    N107     N        0.02933    0.28052    0.17967    1.000
    Si108    Si       0.01944    0.26899    0.22020    1.000
    Si109    Si       0.00881    0.27285    0.14231    1.000
    Si110    Si       0.03243    0.50536    0.17937    1.000
    N111     N        0.04629    0.42778    0.21806    1.000
    N112     N        0.03722    0.41122    0.14488    1.000
    N113     N        0.01329    0.46779    0.17153    1.000
    Si114    Si       0.02334    0.42731    0.18256    1.000
    Si115    Si       0.99321    0.50697    0.23890    1.000
    Si116    Si       0.01050    0.35246    0.35062    1.000
    N117     N        0.01009    0.30900    0.35782    1.000
    N118     N        0.03949    0.27179    0.25739    1.000
    N119     N        0.00116    0.36085    0.30734    1.000
    N120     N        0.02448    0.48020    0.25738    1.000
    N121     N        0.03896    0.42945    0.30725    1.000
    Si122    Si       0.02188    0.39457    0.28457    1.000
    Si123    Si       0.02590    0.47057    0.29985    1.000
    Si124    Si       0.03251    0.35795    0.45528    1.000
    N125     N        0.99323    0.33817    0.45451    1.000
    N126     N        0.02524    0.50616    0.39119    1.000
    Si127    Si       0.02158    0.46541    0.40259    1.000
    Si128    Si       0.01674    0.48742    0.46929    1.000
    N129     N        0.02807    0.39878    0.43881    1.000
    N130     N        0.03258    0.43208    0.37692    1.000
    Si131    Si       0.00439    0.40759    0.40353    1.000
    N132     N        0.04601    0.46619    0.43956    1.000
    N133     N        0.98741    0.45518    0.48248    1.000
    N134     N        0.00825    0.35283    0.55674    1.000
    Si135    Si       0.01328    0.28421    0.56906    1.000
    N136     N        0.01481    0.30701    0.60561    1.000
    Si137    Si       0.01641    0.34964    0.59948    1.000
    Si138    Si       0.03554    0.37172    0.52895    1.000
    N139     N        0.04456    0.27201    0.54271    1.000
    N140     N        0.00154    0.39093    0.50662    1.000
    N141     N        0.03727    0.49183    0.50767    1.000
    N142     N        0.01165    0.44739    0.55073    1.000
    Si143    Si       0.03157    0.48737    0.54883    1.000
    Si144    Si       0.01569    0.43142    0.50759    1.000
    N145     N        0.04183    0.42095    0.61463    1.000
    Si146    Si       0.04608    0.43183    0.57330    1.000
    N147     N        0.00937    0.34830    0.72620    1.000
    Si148    Si       0.00954    0.29676    0.64846    1.000
    N149     N        0.03496    0.28545    0.72139    1.000
    Si150    Si       0.04408    0.32557    0.70864    1.000
    N151     N        0.04378    0.31986    0.66573    1.000
    Si152    Si       0.99732    0.38893    0.72012    1.000
    N153     N        0.03090    0.47079    0.68540    1.000
    Si154    Si       0.03803    0.42972    0.69476    1.000
    N155     N        0.00883    0.40332    0.67766    1.000
    N156     N        0.02548    0.42238    0.73810    1.000
    Si157    Si       0.00164    0.41098    0.63515    1.000
    Si158    Si       0.99657    0.50167    0.68306    1.000
    Si159    Si       0.03363    0.28395    0.76386    1.000
    Si160    Si       0.00199    0.37489    0.86296    1.000
    N161     N        0.99637    0.29837    0.77837    1.000
    Si162    Si       0.00499    0.45239    0.76706    1.000
    N163     N        0.01057    0.49592    0.75717    1.000
    N164     N        0.04019    0.44596    0.79499    1.000
    N165     N        0.04030    0.39600    0.85589    1.000
    N166     N        0.01054    0.33547    0.87876    1.000
    N167     N        0.00777    0.26710    0.90427    1.000
    Si168    Si       0.03261    0.29748    0.88253    1.000
    N169     N        0.01175    0.33917    0.95238    1.000
    N170     N        0.04079    0.27788    0.96287    1.000
    Si171    Si       0.99994    0.34013    0.99408    1.000
    Si172    Si       0.98976    0.34519    0.91523    1.000
    N173     N        0.02145    0.44448    0.91076    1.000
    Si174    Si       0.02742    0.48520    0.89339    1.000
    N175     N        0.03365    0.40679    0.97395    1.000
    Si176    Si       0.99284    0.41308    0.98722    1.000
    N177     N        0.05009    0.47466    0.96953    1.000
    N178     N        0.98967    0.50361    0.88453    1.000
    Si179    Si       0.02025    0.61775    0.04152    1.000
    N180     N        0.01029    0.57539    0.03570    1.000
    Si181    Si       0.03520    0.54109    0.04065    1.000
    N182     N        0.03511    0.52995    0.08272    1.000
    Si183    Si       0.04815    0.55614    0.11702    1.000
    N184     N        0.01638    0.63827    0.00471    1.000
    Si185    Si       0.01945    0.73608    0.09056    1.000
    N186     N        0.00861    0.69962    0.06945    1.000
    Si187    Si       0.99507    0.66690    0.09213    1.000
    N188     N        0.00337    0.75491    0.01819    1.000
    N189     N        0.02565    0.65145    0.12153    1.000
    N190     N        0.04895    0.52195    0.14348    1.000
    N191     N        0.01010    0.57824    0.12139    1.000
    N192     N        0.02763    0.60762    0.18459    1.000
    Si193    Si       0.01658    0.57361    0.21006    1.000
    N194     N        0.00930    0.53043    0.20482    1.000
    Si195    Si       0.00908    0.61568    0.14538    1.000
    N196     N        0.04481    0.57583    0.24488    1.000
    N197     N        0.03395    0.64250    0.24539    1.000
    Si198    Si       0.04709    0.64186    0.20335    1.000
    Si199    Si       0.03457    0.68848    0.14557    1.000
    N200     N        0.03011    0.67997    0.18741    1.000
    N201     N        0.01351    0.72117    0.13100    1.000
    Si202    Si       0.01236    0.71111    0.20963    1.000
    N203     N        0.02402    0.74868    0.19275    1.000
    Si204    Si       0.00688    0.75882    0.15406    1.000
    N205     N        0.01854    0.61190    0.35642    1.000
    Si206    Si       0.02866    0.60562    0.27131    1.000
    N207     N        0.00429    0.54183    0.33832    1.000
    Si208    Si       0.03992    0.52170    0.35254    1.000
    Si209    Si       0.99390    0.57589    0.36348    1.000
    N210     N        0.99865    0.67015    0.30094    1.000
    N211     N        0.00779    0.73774    0.31001    1.000
    Si212    Si       0.03234    0.67685    0.27420    1.000
    Si213    Si       0.00902    0.75070    0.26895    1.000
    N214     N        0.01342    0.68746    0.36331    1.000
    N215     N        0.02446    0.71320    0.25069    1.000
    Si216    Si       0.99177    0.70347    0.32879    1.000
    N217     N        0.99358    0.59538    0.46849    1.000
    Si218    Si       0.99321    0.52762    0.41321    1.000
    N219     N        0.00282    0.56897    0.40436    1.000
    Si220    Si       0.01003    0.60317    0.42918    1.000
    N221     N        0.99452    0.52228    0.45631    1.000
    Si222    Si       0.99920    0.64727    0.37272    1.000
    Si223    Si       0.04305    0.75017    0.48931    1.000
    N224     N        0.01895    0.65937    0.47521    1.000
    N225     N        0.04647    0.74732    0.37525    1.000
    N226     N        0.00885    0.72824    0.49513    1.000
    N227     N        0.03330    0.60956    0.53412    1.000
    N228     N        0.01096    0.57514    0.59037    1.000
    Si229    Si       0.01856    0.56986    0.54709    1.000
    Si230    Si       0.02550    0.53838    0.60758    1.000
    N231     N        0.00857    0.51390    0.57291    1.000
    N232     N        0.03975    0.67993    0.54066    1.000
    Si233    Si       0.03234    0.64216    0.56348    1.000
    Si234    Si       0.01198    0.68723    0.51041    1.000
    N235     N        0.99719    0.53652    0.70763    1.000
    N236     N        0.99929    0.58465    0.65540    1.000
    Si237    Si       0.03567    0.60779    0.66555    1.000
    N238     N        0.03407    0.61578    0.70765    1.000
    N239     N        0.01237    0.51380    0.64242    1.000
    Si240    Si       0.99758    0.62892    0.72949    1.000
    N241     N        0.03536    0.73954    0.73302    1.000
    Si242    Si       0.01579    0.70307    0.71731    1.000
    N243     N        0.01248    0.70867    0.67486    1.000
    Si244    Si       0.02113    0.72652    0.63572    1.000
    N245     N        0.04074    0.67174    0.73242    1.000
    N246     N        0.01475    0.64443    0.64574    1.000
    N247     N        0.01155    0.62068    0.76976    1.000
    Si248    Si       0.01809    0.58202    0.78746    1.000
    N249     N        0.03705    0.58143    0.82869    1.000
    Si250    Si       0.03629    0.59862    0.86957    1.000
    Si251    Si       0.04624    0.52006    0.76471    1.000
    N252     N        0.02009    0.63909    0.86757    1.000
    N253     N        0.01106    0.73374    0.79645    1.000
    N254     N        0.02053    0.70281    0.86078    1.000
    Si255    Si       0.03546    0.73145    0.83340    1.000
    Si256    Si       0.04815    0.66936    0.87456    1.000
    Si257    Si       0.04563    0.64845    0.76821    1.000
    N258     N        0.02882    0.54691    0.96558    1.000
    Si259    Si       0.01127    0.57798    0.94212    1.000
    N260     N        0.03445    0.61631    0.94247    1.000
    N261     N        0.01306    0.57323    0.89851    1.000
    Si262    Si       0.00056    0.63318    0.96543    1.000
    N263     N        0.02651    0.71697    0.96329    1.000
    Si264    Si       0.03645    0.74961    0.99151    1.000
    N265     N        0.02402    0.83857    0.08716    1.000
    Si266    Si       0.03527    0.83540    0.04288    1.000
    Si267    Si       0.00726    0.80741    0.11142    1.000
    N268     N        0.00247    0.83246    0.01480    1.000
    N269     N        0.99374    0.76985    0.09232    1.000
    Si270    Si       0.03055    0.86865    0.11863    1.000
    Si271    Si       0.02822    0.96189    0.04976    1.000
    N272     N        0.03798    0.94276    0.08611    1.000
    Si273    Si       0.00557    0.93579    0.11390    1.000
    N274     N        0.99471    0.89408    0.10778    1.000
    N275     N        0.00071    0.81286    0.20729    1.000
    Si276    Si       0.03719    0.78355    0.21230    1.000
    N277     N        0.03351    0.78913    0.14058    1.000
    N278     N        0.02435    0.86574    0.16281    1.000
    Si279    Si       0.99029    0.84276    0.17574    1.000
    N280     N        0.03059    0.94211    0.14965    1.000
    Si281    Si       0.00128    0.94801    0.18441    1.000
    Si282    Si       0.01883    0.92967    0.24518    1.000
    N283     N        0.03381    0.92080    0.20648    1.000
    Si284    Si       0.04568    0.99321    0.22544    1.000
    N285     N        0.00715    0.98547    0.20520    1.000
    N286     N        0.02287    0.80001    0.32100    1.000
    Si287    Si       0.00321    0.87527    0.29405    1.000
    N288     N        0.04288    0.77590    0.25373    1.000
    N289     N        0.03725    0.86896    0.32228    1.000
    Si290    Si       0.03553    0.75949    0.33518    1.000
    N291     N        0.01358    0.93999    0.32212    1.000
    N292     N        0.03097    0.89685    0.27055    1.000
    Si293    Si       0.03905    0.91801    0.34960    1.000
    N294     N        0.04092    0.00311    0.31423    1.000
    N295     N        0.04172    0.96585    0.25954    1.000
    Si296    Si       0.04855    0.96191    0.30251    1.000
    N297     N        0.03773    0.86509    0.43276    1.000
    N298     N        0.03597    0.80510    0.41512    1.000
    Si299    Si       0.00651    0.83284    0.43521    1.000
    N300     N        0.99741    0.83453    0.47801    1.000
    N301     N        0.04767    0.92743    0.44892    1.000
    N302     N        0.04476    0.98590    0.47479    1.000
    N303     N        0.99205    0.95245    0.49227    1.000
    N304     N        0.99768    0.96579    0.42790    1.000
    Si305    Si       0.04131    0.90529    0.40849    1.000
    N306     N        0.00818    0.89868    0.37790    1.000
    Si307    Si       0.04073    0.96933    0.43241    1.000
    N308     N        0.03618    0.78671    0.51324    1.000
    Si309    Si       0.00146    0.81269    0.51653    1.000
    N310     N        0.99820    0.85045    0.54157    1.000
    Si311    Si       0.03266    0.87854    0.54148    1.000
    N312     N        0.02890    0.90178    0.58017    1.000
    Si313    Si       0.03494    0.98130    0.55673    1.000
    N314     N        0.00191    0.96651    0.58274    1.000
    N315     N        0.02584    0.89559    0.50155    1.000
    Si316    Si       0.99302    0.92281    0.58908    1.000
    N317     N        0.01136    0.00565    0.52919    1.000
    Si318    Si       0.03414    0.94561    0.49597    1.000
    N319     N        0.03735    0.76565    0.62689    1.000
    N320     N        0.02023    0.78503    0.68998    1.000
    N321     N        0.03866    0.87612    0.70811    1.000
    Si322    Si       0.01657    0.79576    0.64748    1.000
    N323     N        0.01940    0.83865    0.65196    1.000
    Si324    Si       0.98976    0.97640    0.70005    1.000
    N325     N        0.01075    0.93879    0.69941    1.000
    Si326    Si       0.00111    0.89806    0.70287    1.000
    Si327    Si       0.03732    0.80266    0.82170    1.000
    N328     N        0.02727    0.77026    0.84834    1.000
    N329     N        0.99591    0.81918    0.81257    1.000
    Si330    Si       0.02288    0.76156    0.76666    1.000
    Si331    Si       0.01384    0.91325    0.80101    1.000
    N332     N        0.03675    0.91722    0.83728    1.000
    N333     N        0.04053    0.99973    0.82697    1.000
    N334     N        0.99521    0.94747    0.78371    1.000
    Si335    Si       0.01534    0.00305    0.86440    1.000
    N336     N        0.99324    0.96552    0.86957    1.000
    Si337    Si       0.99297    0.78681    0.86958    1.000
    N338     N        0.99889    0.83143    0.87458    1.000
    N339     N        0.01655    0.84278    0.94278    1.000
    N340     N        0.00193    0.77164    0.91018    1.000
    Si341    Si       0.01555    0.85810    0.90436    1.000
    Si342    Si       0.04327    0.76501    0.92336    1.000
    N343     N        0.04221    0.78155    0.96442    1.000
    Si344    Si       0.01603    0.92717    0.87461    1.000
    N345     N        0.99548    0.94714    0.97739    1.000
    N346     N        0.99203    0.89635    0.89660    1.000
    Si347    Si       0.03853    0.94539    0.97818    1.000
    N348     N        0.08652    0.02057    0.00453    1.000
    Si349    Si       0.07063    0.02703    0.04360    1.000
    Si350    Si       0.05333    0.09742    0.07223    1.000
    N351     N        0.09661    0.09455    0.07468    1.000
    N352     N        0.09885    0.02618    0.07590    1.000
    Si353    Si       0.09655    0.21373    0.06733    1.000
    N354     N        0.06773    0.15920    0.00577    1.000
    N355     N        0.05428    0.20342    0.06345    1.000
    N356     N        0.08831    0.25512    0.07425    1.000
    Si357    Si       0.10004    0.18716    0.99808    1.000
    Si358    Si       0.05079    0.25170    0.99572    1.000
    N359     N        0.08922    0.06627    0.13901    1.000
    N360     N        0.08306    0.12434    0.17799    1.000
    Si361    Si       0.10811    0.08889    0.17018    1.000
    N362     N        0.07602    0.18421    0.22612    1.000
    Si363    Si       0.10009    0.15768    0.20181    1.000
    Si364    Si       0.09521    0.20505    0.13988    1.000
    N365     N        0.08676    0.24647    0.14663    1.000
    N366     N        0.06249    0.17591    0.13671    1.000
    Si367    Si       0.05472    0.10343    0.27862    1.000
    Si368    Si       0.05843    0.03191    0.28517    1.000
    N369     N        0.09782    0.09537    0.27368    1.000
    N370     N        0.09658    0.11531    0.35188    1.000
    N371     N        0.10151    0.02465    0.28039    1.000
    Si372    Si       0.06270    0.14248    0.34491    1.000
    N373     N        0.07448    0.18355    0.35222    1.000
    Si374    Si       0.07686    0.22067    0.32795    1.000
    Si375    Si       0.09238    0.19825    0.26429    1.000
    N376     N        0.05725    0.20910    0.28819    1.000
    N377     N        0.05133    0.25552    0.33174    1.000
    N378     N        0.05034    0.13908    0.30291    1.000
    N379     N        0.06755    0.07657    0.41279    1.000
    Si380    Si       0.08507    0.03723    0.41233    1.000
    Si381    Si       0.08438    0.11464    0.42752    1.000
    Si382    Si       0.08858    0.13014    0.49479    1.000
    N383     N        0.09139    0.23040    0.44414    1.000
    N384     N        0.07357    0.17131    0.47795    1.000
    N385     N        0.10074    0.15143    0.40837    1.000
    Si386    Si       0.08447    0.18921    0.39453    1.000
    Si387    Si       0.09953    0.20645    0.48134    1.000
    Si388    Si       0.05698    0.25171    0.46408    1.000
    N389     N        0.07630    0.07301    0.60156    1.000
    N390     N        0.07947    0.02873    0.51570    1.000
    Si391    Si       0.09606    0.01840    0.55327    1.000
    Si392    Si       0.06481    0.03172    0.61325    1.000
    N393     N        0.05168    0.10701    0.50665    1.000
    N394     N        0.06558    0.13434    0.57546    1.000
    Si395    Si       0.09332    0.21788    0.58360    1.000
    N396     N        0.07278    0.23658    0.50040    1.000
    N397     N        0.06063    0.20216    0.55851    1.000
    N398     N        0.07648    0.23379    0.62027    1.000
    Si399    Si       0.10808    0.14471    0.56886    1.000
    N400     N        0.07485    0.03346    0.71246    1.000
    Si401    Si       0.05895    0.07173    0.72331    1.000
    N402     N        0.05244    0.09734    0.68786    1.000
    N403     N        0.10057    0.01385    0.63201    1.000
    Si404    Si       0.04792    0.01436    0.68533    1.000
    N405     N        0.08379    0.25284    0.68407    1.000
    Si406    Si       0.05839    0.13959    0.69607    1.000
    N407     N        0.09539    0.15009    0.71819    1.000
    Si408    Si       0.06791    0.07821    0.79228    1.000
    N409     N        0.06753    0.03431    0.77986    1.000
    N410     N        0.09845    0.08311    0.82119    1.000
    N411     N        0.08661    0.08956    0.75190    1.000
    Si412    Si       0.09683    0.01876    0.74743    1.000
    N413     N        0.05236    0.12080    0.79336    1.000
    Si414    Si       0.07255    0.14536    0.75991    1.000
    N415     N        0.06279    0.21446    0.84418    1.000
    N416     N        0.06619    0.18576    0.77530    1.000
    Si417    Si       0.05901    0.22322    0.75597    1.000
    N418     N        0.08863    0.15605    0.84612    1.000
    Si419    Si       0.09110    0.18289    0.81102    1.000
    N420     N        0.09773    0.24315    0.75225    1.000
    Si421    Si       0.08660    0.25298    0.85125    1.000
    Si422    Si       0.06538    0.18185    0.87163    1.000
    Si423    Si       0.08059    0.05597    0.97692    1.000
    N424     N        0.09340    0.09712    0.98169    1.000
    Si425    Si       0.05816    0.12498    0.98009    1.000
    N426     N        0.09767    0.03114    0.94342    1.000
    N427     N        0.09209    0.18776    0.90516    1.000
    Si428    Si       0.09841    0.15007    0.92900    1.000
    N429     N        0.05747    0.14075    0.94007    1.000
    N430     N        0.08130    0.22318    0.98451    1.000
    Si431    Si       0.06266    0.31222    0.03507    1.000
    Si432    Si       0.08207    0.27768    0.11567    1.000
    N433     N        0.06435    0.33569    0.07456    1.000
    N434     N        0.10224    0.30539    0.02396    1.000
    Si435    Si       0.10197    0.34400    0.09658    1.000
    N436     N        0.08823    0.39268    0.02291    1.000
    Si437    Si       0.07363    0.41958    0.05480    1.000
    Si438    Si       0.09242    0.46128    0.11194    1.000
    N439     N        0.06315    0.45663    0.03532    1.000
    N440     N        0.10550    0.43291    0.08182    1.000
    Si441    Si       0.09560    0.34395    0.16333    1.000
    N442     N        0.09745    0.37136    0.12849    1.000
    N443     N        0.07798    0.30877    0.14827    1.000
    Si444    Si       0.07136    0.27452    0.17484    1.000
    N445     N        0.09072    0.28234    0.21174    1.000
    N446     N        0.07873    0.37714    0.18844    1.000
    N447     N        0.06798    0.49608    0.20528    1.000
    Si448    Si       0.08006    0.40377    0.15049    1.000
    Si449    Si       0.05928    0.46586    0.23568    1.000
    Si450    Si       0.07827    0.39445    0.22699    1.000
    N451     N        0.10218    0.44060    0.14959    1.000
    Si452    Si       0.08626    0.35130    0.35027    1.000
    N453     N        0.07865    0.31253    0.36240    1.000
    Si454    Si       0.08412    0.27723    0.25487    1.000
    N455     N        0.09686    0.30677    0.28425    1.000
    Si456    Si       0.09004    0.35018    0.27648    1.000
    N457     N        0.05551    0.37432    0.26357    1.000
    N458     N        0.04927    0.37336    0.35173    1.000
    N459     N        0.10453    0.36875    0.31524    1.000
    Si460    Si       0.04637    0.28427    0.36232    1.000
    N461     N        0.09565    0.43233    0.34344    1.000
    N462     N        0.09140    0.47275    0.26518    1.000
    Si463    Si       0.09428    0.50121    0.29995    1.000
    Si464    Si       0.05611    0.41565    0.34606    1.000
    N465     N        0.05449    0.49732    0.31969    1.000
    Si466    Si       0.08665    0.32813    0.48071    1.000
    N467     N        0.06777    0.29381    0.46088    1.000
    N468     N        0.06124    0.34610    0.42510    1.000
    Si469    Si       0.07476    0.30185    0.41618    1.000
    Si470    Si       0.09941    0.36921    0.42270    1.000
    N471     N        0.05325    0.35334    0.49298    1.000
    N472     N        0.04786    0.27028    0.40357    1.000
    N473     N        0.09749    0.41141    0.43582    1.000
    Si474    Si       0.07941    0.49513    0.42915    1.000
    Si475    Si       0.05999    0.42680    0.45201    1.000
    N476     N        0.09469    0.49976    0.38732    1.000
    N477     N        0.05848    0.42445    0.49755    1.000
    Si478    Si       0.08677    0.27072    0.52801    1.000
    N479     N        0.05706    0.35723    0.60976    1.000
    Si480    Si       0.08701    0.38109    0.59023    1.000
    N481     N        0.10274    0.30979    0.51749    1.000
    N482     N        0.06774    0.47022    0.56665    1.000
    N483     N        0.06344    0.39547    0.55376    1.000
    Si484    Si       0.09181    0.40648    0.52169    1.000
    Si485    Si       0.09734    0.49739    0.60611    1.000
    Si486    Si       0.10605    0.47318    0.54743    1.000
    N487     N        0.10585    0.50331    0.51863    1.000
    N488     N        0.10716    0.41011    0.61083    1.000
    N489     N        0.09657    0.29764    0.62268    1.000
    Si490    Si       0.07690    0.33318    0.64019    1.000
    N491     N        0.07758    0.34991    0.72234    1.000
    Si492    Si       0.09572    0.37686    0.69532    1.000
    Si493    Si       0.10034    0.25839    0.64491    1.000
    N494     N        0.08462    0.47144    0.63919    1.000
    N495     N        0.07539    0.41323    0.68123    1.000
    Si496    Si       0.05196    0.49662    0.65567    1.000
    Si497    Si       0.07766    0.42705    0.63924    1.000
    N498     N        0.09456    0.44370    0.74480    1.000
    N499     N        0.08392    0.34258    0.84106    1.000
    Si500    Si       0.08709    0.34837    0.76544    1.000
    N501     N        0.06311    0.31459    0.77985    1.000
    Si502    Si       0.07309    0.30572    0.82061    1.000
    N503     N        0.04828    0.27788    0.84628    1.000
    Si504    Si       0.07393    0.38547    0.82820    1.000
    N505     N        0.07392    0.38444    0.78480    1.000
    N506     N        0.06081    0.47301    0.86295    1.000
    Si507    Si       0.06214    0.42164    0.76592    1.000
    Si508    Si       0.05899    0.47466    0.81980    1.000
    N509     N        0.09951    0.46957    0.80580    1.000
    N510     N        0.09828    0.41879    0.84737    1.000
    N511     N        0.06610    0.30603    0.90978    1.000
    N512     N        0.07832    0.34122    0.97228    1.000
    Si513    Si       0.05070    0.31758    0.94813    1.000
    Si514    Si       0.10482    0.28842    0.91350    1.000
    Si515    Si       0.05973    0.37490    0.99390    1.000
    Si516    Si       0.04848    0.43692    0.94620    1.000
    Si517    Si       0.06582    0.42714    0.87751    1.000
    N518     N        0.08217    0.42684    0.91929    1.000
    Si519    Si       0.08756    0.50562    0.88085    1.000
    N520     N        0.08646    0.56789    0.10745    1.000
    Si521    Si       0.08648    0.58401    0.06698    1.000
    N522     N        0.07689    0.55607    0.03483    1.000
    N523     N        0.05796    0.61821    0.06466    1.000
    N524     N        0.09873    0.63409    0.11800    1.000
    Si525    Si       0.06401    0.64864    0.09610    1.000
    N526     N        0.06173    0.74200    0.08422    1.000
    N527     N        0.08908    0.68151    0.07683    1.000
    N528     N        0.07281    0.74585    0.01312    1.000
    Si529    Si       0.09245    0.71703    0.10546    1.000
    Si530    Si       0.10494    0.51700    0.19484    1.000
    Si531    Si       0.10248    0.65899    0.15443    1.000
    N532     N        0.07683    0.69167    0.13764    1.000
    N533     N        0.09054    0.64387    0.19489    1.000
    N534     N        0.06766    0.55549    0.35065    1.000
    Si535    Si       0.05944    0.59912    0.34305    1.000
    N536     N        0.06142    0.60937    0.29970    1.000
    N537     N        0.10184    0.54271    0.28486    1.000
    Si538    Si       0.08614    0.57280    0.25634    1.000
    N539     N        0.10801    0.61091    0.25703    1.000
    N540     N        0.08684    0.62217    0.36791    1.000
    N541     N        0.07121    0.67818    0.29198    1.000
    N542     N        0.08737    0.69374    0.35450    1.000
    Si543    Si       0.09049    0.70967    0.31514    1.000
    N544     N        0.07229    0.74895    0.31376    1.000
    Si545    Si       0.09305    0.63724    0.28852    1.000
    Si546    Si       0.08780    0.60654    0.40953    1.000
    N547     N        0.06906    0.52572    0.46043    1.000
    N548     N        0.08577    0.59154    0.48312    1.000
    Si549    Si       0.09747    0.55994    0.45493    1.000
    N550     N        0.09424    0.56306    0.41156    1.000
    Si551    Si       0.10264    0.54076    0.37525    1.000
    N552     N        0.05039    0.61856    0.42546    1.000
    N553     N        0.05612    0.75047    0.44895    1.000
    N554     N        0.08728    0.66535    0.47093    1.000
    N555     N        0.05646    0.69170    0.42043    1.000
    Si556    Si       0.08084    0.71063    0.45590    1.000
    Si557    Si       0.05185    0.70323    0.37918    1.000
    Si558    Si       0.04984    0.65796    0.44688    1.000
    Si559    Si       0.07200    0.59164    0.52478    1.000
    N560     N        0.06739    0.52866    0.61411    1.000
    N561     N        0.10247    0.60791    0.55080    1.000
    Si562    Si       0.06857    0.52025    0.50351    1.000
    N563     N        0.05587    0.55117    0.53219    1.000
    N564     N        0.06214    0.64320    0.59387    1.000
    Si565    Si       0.07669    0.70452    0.53970    1.000
    N566     N        0.06678    0.74025    0.56256    1.000
    Si567    Si       0.10312    0.64239    0.57873    1.000
    N568     N        0.07863    0.72554    0.50043    1.000
    N569     N        0.06788    0.58528    0.64952    1.000
    Si570    Si       0.09304    0.55009    0.64376    1.000
    N571     N        0.08152    0.52184    0.67873    1.000
    Si572    Si       0.10208    0.53073    0.71704    1.000
    Si573    Si       0.10379    0.61274    0.65269    1.000
    Si574    Si       0.05312    0.66064    0.63170    1.000
    N575     N        0.08647    0.74037    0.68210    1.000
    N576     N        0.05834    0.70279    0.62920    1.000
    Si577    Si       0.09553    0.72063    0.64490    1.000
    Si578    Si       0.06972    0.64717    0.70994    1.000
    N579     N        0.07509    0.64287    0.66590    1.000
    Si580    Si       0.07068    0.55423    0.82205    1.000
    Si581    Si       0.08756    0.58432    0.76129    1.000
    N582     N        0.09270    0.54382    0.85884    1.000
    N583     N        0.05264    0.51659    0.80869    1.000
    N584     N        0.08103    0.62673    0.75634    1.000
    N585     N        0.10347    0.57898    0.80049    1.000
    N586     N        0.08750    0.50823    0.75109    1.000
    N587     N        0.04851    0.56268    0.76362    1.000
    Si588    Si       0.08804    0.68974    0.81551    1.000
    N589     N        0.08935    0.67520    0.85621    1.000
    N590     N        0.07829    0.73034    0.82118    1.000
    N591     N        0.05286    0.67320    0.80055    1.000
    Si592    Si       0.05586    0.51553    0.95667    1.000
    N593     N        0.09631    0.52333    0.97373    1.000
    N594     N        0.07576    0.60175    0.88867    1.000
    Si595    Si       0.07063    0.62557    0.92534    1.000
    N596     N        0.10238    0.62508    0.95364    1.000
    N597     N        0.05537    0.51264    0.91263    1.000
    N598     N        0.09231    0.69138    0.97627    1.000
    Si599    Si       0.10820    0.67752    0.89501    1.000
    N600     N        0.06901    0.67012    0.91368    1.000
    N601     N        0.07563    0.73688    0.92373    1.000
    Si602    Si       0.06256    0.69928    0.94619    1.000
    N603     N        0.06583    0.80608    0.04452    1.000
    N604     N        0.06388    0.86281    0.02274    1.000
    Si605    Si       0.08126    0.76626    0.05136    1.000
    Si606    Si       0.09710    0.83730    0.03531    1.000
    Si607    Si       0.07645    0.92941    0.10346    1.000
    Si608    Si       0.09738    0.93428    0.02979    1.000
    N609     N        0.05595    0.94658    0.01746    1.000
    N610     N        0.09722    0.91811    0.07037    1.000
    N611     N        0.06693    0.89154    0.12504    1.000
    N612     N        0.07542    0.79376    0.19713    1.000
    Si613    Si       0.07474    0.79199    0.15331    1.000
    N614     N        0.09502    0.82944    0.14187    1.000
    Si615    Si       0.10163    0.87065    0.14698    1.000
    N616     N        0.09799    0.75909    0.13969    1.000
    N617     N        0.08649    0.88370    0.18502    1.000
    Si618    Si       0.05665    0.98005    0.14950    1.000
    N619     N        0.09035    0.96263    0.12727    1.000
    Si620    Si       0.04794    0.90358    0.17037    1.000
    N621     N        0.07036    0.99282    0.18803    1.000
    N622     N        0.08359    0.81821    0.29643    1.000
    Si623    Si       0.07774    0.77749    0.27914    1.000
    Si624    Si       0.05576    0.82821    0.32731    1.000
    N625     N        0.07373    0.81683    0.36526    1.000
    N626     N        0.10447    0.88320    0.28447    1.000
    Si627    Si       0.06492    0.89305    0.29617    1.000
    N628     N        0.07194    0.92895    0.32033    1.000
    N629     N        0.10493    0.98020    0.34529    1.000
    Si630    Si       0.06247    0.84100    0.40294    1.000
    Si631    Si       0.06040    0.76931    0.41099    1.000
    N632     N        0.10015    0.83088    0.42307    1.000
    N633     N        0.07435    0.88099    0.38713    1.000
    N634     N        0.10370    0.77045    0.40808    1.000
    N635     N        0.09052    0.87855    0.47733    1.000
    Si636    Si       0.08450    0.97224    0.38215    1.000
    Si637    Si       0.05086    0.88861    0.46786    1.000
    N638     N        0.06200    0.99990    0.40845    1.000
    N639     N        0.05452    0.94114    0.38569    1.000
    Si640    Si       0.06725    0.77710    0.53990    1.000
    Si641    Si       0.09048    0.83840    0.57075    1.000
    N642     N        0.07020    0.80070    0.57552    1.000
    N643     N        0.08291    0.86105    0.60673    1.000
    N644     N        0.07540    0.86775    0.54087    1.000
    Si645    Si       0.07044    0.76340    0.59853    1.000
    N646     N        0.10419    0.78437    0.52046    1.000
    N647     N        0.09309    0.92679    0.59109    1.000
    Si648    Si       0.06256    0.89986    0.60618    1.000
    Si649    Si       0.09556    0.94369    0.55243    1.000
    N650     N        0.05534    0.95129    0.53354    1.000
    N651     N        0.06112    0.00879    0.57721    1.000
    N652     N        0.08774    0.79061    0.71874    1.000
    N653     N        0.09039    0.84259    0.67075    1.000
    Si654    Si       0.05658    0.76404    0.70353    1.000
    Si655    Si       0.05223    0.86450    0.66847    1.000
    N656     N        0.08609    0.84686    0.74435    1.000
    N657     N        0.06296    0.97581    0.67408    1.000
    N658     N        0.07820    0.92222    0.72013    1.000
    Si659    Si       0.05291    0.93346    0.68378    1.000
    N660     N        0.05400    0.90521    0.65115    1.000
    Si661    Si       0.06554    0.88647    0.74112    1.000
    Si662    Si       0.08526    0.80639    0.75967    1.000
    N663     N        0.06778    0.82516    0.84494    1.000
    Si664    Si       0.08286    0.86176    0.86295    1.000
    N665     N        0.04998    0.79210    0.78153    1.000
    N666     N        0.10153    0.88572    0.83299    1.000
    Si667    Si       0.07997    0.99099    0.80521    1.000
    Si668    Si       0.07631    0.91582    0.81040    1.000
    N669     N        0.09149    0.95520    0.82665    1.000
    N670     N        0.09515    0.97999    0.76336    1.000
    N671     N        0.04604    0.89816    0.77779    1.000
    Si672    Si       0.09296    0.80455    0.87665    1.000
    Si673    Si       0.05452    0.81993    0.94739    1.000
    N674     N        0.06533    0.80147    0.90842    1.000
    N675     N        0.08553    0.84836    0.95703    1.000
    N676     N        0.05399    0.87479    0.89378    1.000
    Si677    Si       0.07499    0.88144    0.98464    1.000
    N678     N        0.09966    0.99028    0.89169    1.000
    Si679    Si       0.06630    0.90661    0.92147    1.000
    N680     N        0.05099    0.90625    0.96199    1.000
    Si681    Si       0.06325    0.97964    0.91179    1.000
    N682     N        0.05849    0.97585    0.95502    1.000
    N683     N        0.04937    0.94000    0.90168    1.000
    Si684    Si       0.09202    0.99604    0.97099    1.000
    N685     N        0.10872    0.90234    0.92678    1.000
    Si686    Si       0.13662    0.11519    0.06051    1.000
    N687     N        0.15172    0.06265    0.10536    1.000
    Si688    Si       0.10812    0.05996    0.10173    1.000
    N689     N        0.16127    0.01775    0.04515    1.000
    N690     N        0.16272    0.08585    0.04235    1.000
    N691     N        0.13378    0.13973    0.02444    1.000
    N692     N        0.11723    0.20203    0.10190    1.000
    N693     N        0.12214    0.20279    0.03210    1.000
    Si694    Si       0.15929    0.19003    0.09631    1.000
    Si695    Si       0.15885    0.17665    0.03211    1.000
    N696     N        0.16024    0.14988    0.07897    1.000
    N697     N        0.11894    0.05596    0.20056    1.000
    N698     N        0.14818    0.10449    0.16135    1.000
    Si699    Si       0.10933    0.01276    0.19408    1.000
    Si700    Si       0.15930    0.06304    0.21721    1.000
    Si701    Si       0.16290    0.12840    0.19491    1.000
    N702     N        0.13020    0.13371    0.22203    1.000
    N703     N        0.11825    0.18673    0.17291    1.000
    N704     N        0.15890    0.24048    0.19280    1.000
    Si705    Si       0.16003    0.19883    0.17358    1.000
    Si706    Si       0.12423    0.06329    0.28746    1.000
    N707     N        0.14349    0.06971    0.32687    1.000
    Si708    Si       0.12023    0.07875    0.36166    1.000
    N709     N        0.15737    0.06718    0.26070    1.000
    N710     N        0.16443    0.12878    0.28246    1.000
    Si711    Si       0.12543    0.12650    0.26468    1.000
    N712     N        0.11630    0.16743    0.27951    1.000
    N713     N        0.14522    0.16698    0.34634    1.000
    Si714    Si       0.14116    0.20996    0.35281    1.000
    Si715    Si       0.15279    0.16668    0.30371    1.000
    N716     N        0.11684    0.24040    0.32796    1.000
    N717     N        0.10993    0.24016    0.25261    1.000
    Si718    Si       0.11573    0.02551    0.48842    1.000
    N719     N        0.14722    0.10289    0.38715    1.000
    Si720    Si       0.14560    0.08800    0.47277    1.000
    N721     N        0.11310    0.04004    0.37857    1.000
    N722     N        0.10641    0.10458    0.46319    1.000
    N723     N        0.11164    0.02920    0.44636    1.000
    Si724    Si       0.12703    0.13955    0.37519    1.000
    N725     N        0.12025    0.21465    0.38957    1.000
    Si726    Si       0.12327    0.24690    0.41833    1.000
    N727     N        0.14266    0.19574    0.48933    1.000
    N728     N        0.15834    0.24510    0.44275    1.000
    N729     N        0.13464    0.11568    0.58282    1.000
    N730     N        0.12487    0.04572    0.57094    1.000
    Si731    Si       0.11996    0.07908    0.59979    1.000
    N732     N        0.14387    0.05602    0.50426    1.000
    Si733    Si       0.15963    0.05354    0.54725    1.000
    Si734    Si       0.15415    0.15668    0.50720    1.000
    N735     N        0.11746    0.18207    0.58884    1.000
    Si736    Si       0.15947    0.19039    0.60019    1.000
    N737     N        0.11573    0.14090    0.52553    1.000
    Si738    Si       0.15051    0.25611    0.55196    1.000
    N739     N        0.10957    0.24873    0.55667    1.000
    Si740    Si       0.16237    0.02526    0.71163    1.000
    N741     N        0.13595    0.07272    0.63757    1.000
    Si742    Si       0.14130    0.02938    0.64298    1.000
    N743     N        0.13629    0.09793    0.70874    1.000
    Si744    Si       0.15781    0.09140    0.67172    1.000
    N745     N        0.16259    0.13571    0.67075    1.000
    N746     N        0.13714    0.00802    0.68101    1.000
    N747     N        0.13686    0.03732    0.74388    1.000
    N748     N        0.16198    0.15740    0.73716    1.000
    N749     N        0.15120    0.21985    0.71037    1.000
    Si750    Si       0.13604    0.14151    0.70678    1.000
    Si751    Si       0.11677    0.24887    0.71312    1.000
    Si752    Si       0.12511    0.05350    0.83473    1.000
    N753     N        0.14853    0.11743    0.85243    1.000
    N754     N        0.15796    0.09938    0.77443    1.000
    N755     N        0.11409    0.01182    0.82574    1.000
    Si756    Si       0.11130    0.12390    0.82916    1.000
    Si757    Si       0.12984    0.08197    0.74686    1.000
    Si758    Si       0.16129    0.20091    0.82877    1.000
    N759     N        0.11027    0.14544    0.78877    1.000
    Si760    Si       0.15203    0.14278    0.77598    1.000
    Si761    Si       0.12327    0.24994    0.78845    1.000
    N762     N        0.12358    0.21210    0.81027    1.000
    Si763    Si       0.11998    0.02586    0.90892    1.000
    Si764    Si       0.12873    0.12158    0.98422    1.000
    N765     N        0.12250    0.11835    0.91394    1.000
    Si766    Si       0.14602    0.09342    0.88862    1.000
    N767     N        0.12659    0.05547    0.87828    1.000
    N768     N        0.15949    0.01785    0.92273    1.000
    N769     N        0.12187    0.16340    0.96557    1.000
    Si770    Si       0.12538    0.21444    0.90055    1.000
    N771     N        0.15529    0.19747    0.87241    1.000
    N772     N        0.10870    0.25212    0.88680    1.000
    N773     N        0.14752    0.21920    0.93879    1.000
    Si774    Si       0.16244    0.18397    0.95731    1.000
    N775     N        0.13326    0.36019    0.06837    1.000
    Si776    Si       0.11859    0.28389    0.05898    1.000
    N777     N        0.15764    0.27310    0.06146    1.000
    N778     N        0.11724    0.30231    0.09923    1.000
    Si779    Si       0.12827    0.37814    0.02894    1.000
    N780     N        0.16545    0.34204    0.11834    1.000
    Si781    Si       0.16333    0.30086    0.10061    1.000
    Si782    Si       0.14899    0.43536    0.07366    1.000
    N783     N        0.15578    0.41104    0.03765    1.000
    N784     N        0.10746    0.50223    0.10057    1.000
    N785     N        0.16574    0.47501    0.06726    1.000
    N786     N        0.13791    0.34090    0.17886    1.000
    N787     N        0.15033    0.29736    0.23071    1.000
    N788     N        0.11488    0.35961    0.24263    1.000
    Si789    Si       0.14683    0.33988    0.22236    1.000
    Si790    Si       0.12852    0.26224    0.21778    1.000
    N791     N        0.16719    0.27302    0.13309    1.000
    N792     N        0.16411    0.42358    0.17696    1.000
    Si793    Si       0.12682    0.44653    0.18491    1.000
    N794     N        0.13552    0.48694    0.20163    1.000
    N795     N        0.10918    0.42684    0.21981    1.000
    N796     N        0.14525    0.30721    0.33870    1.000
    Si797    Si       0.12687    0.27851    0.30870    1.000
    N798     N        0.13358    0.42360    0.28455    1.000
    N799     N        0.12758    0.48921    0.32443    1.000
    Si800    Si       0.12431    0.40647    0.32264    1.000
    N801     N        0.15307    0.49973    0.26652    1.000
    Si802    Si       0.12710    0.45500    0.24977    1.000
    Si803    Si       0.11419    0.46826    0.36158    1.000
    N804     N        0.16403    0.40997    0.34186    1.000
    Si805    Si       0.16860    0.49738    0.30737    1.000
    N806     N        0.11881    0.33942    0.45332    1.000
    Si807    Si       0.13226    0.31665    0.38052    1.000
    N808     N        0.11533    0.28704    0.40717    1.000
    Si809    Si       0.16053    0.33282    0.44450    1.000
    N810     N        0.11601    0.35834    0.38465    1.000
    N811     N        0.13890    0.44725    0.39076    1.000
    N812     N        0.11609    0.47782    0.44631    1.000
    Si813    Si       0.14709    0.50505    0.45077    1.000
    Si814    Si       0.13168    0.43844    0.43424    1.000
    Si815    Si       0.12764    0.33982    0.53557    1.000
    Si816    Si       0.12752    0.31288    0.59688    1.000
    N817     N        0.15371    0.29656    0.56757    1.000
    N818     N        0.12057    0.37563    0.51257    1.000
    N819     N        0.11454    0.34998    0.57547    1.000
    Si820    Si       0.16249    0.37718    0.49559    1.000
    N821     N        0.16385    0.26055    0.51208    1.000
    Si822    Si       0.15257    0.41144    0.60761    1.000
    N823     N        0.12912    0.48527    0.57974    1.000
    N824     N        0.12219    0.43671    0.53479    1.000
    Si825    Si       0.16571    0.43431    0.54160    1.000
    N826     N        0.16144    0.32830    0.61978    1.000
    N827     N        0.10902    0.35751    0.65787    1.000
    N828     N        0.13753    0.28726    0.71357    1.000
    Si829    Si       0.15223    0.35621    0.65364    1.000
    Si830    Si       0.16366    0.29071    0.67847    1.000
    N831     N        0.14303    0.26180    0.65284    1.000
    N832     N        0.16665    0.39675    0.64577    1.000
    N833     N        0.16587    0.43874    0.73067    1.000
    N834     N        0.13576    0.45073    0.67540    1.000
    Si835    Si       0.12449    0.43358    0.71391    1.000
    Si836    Si       0.12145    0.49167    0.66803    1.000
    N837     N        0.13082    0.38911    0.71672    1.000
    N838     N        0.12838    0.33293    0.77212    1.000
    N839     N        0.14776    0.36253    0.83614    1.000
    Si840    Si       0.15325    0.30291    0.75119    1.000
    N841     N        0.16063    0.26923    0.77739    1.000
    Si842    Si       0.15865    0.35341    0.79646    1.000
    Si843    Si       0.11879    0.34418    0.86703    1.000
    N844     N        0.10510    0.27537    0.81804    1.000
    Si845    Si       0.11251    0.47722    0.76728    1.000
    N846     N        0.14619    0.48981    0.84580    1.000
    Si847    Si       0.12671    0.45175    0.83481    1.000
    N848     N        0.15411    0.49064    0.77580    1.000
    Si849    Si       0.14981    0.40105    0.86112    1.000
    N850     N        0.16028    0.42704    0.82480    1.000
    N851     N        0.11732    0.28721    0.95638    1.000
    N852     N        0.13251    0.31554    0.89517    1.000
    Si853    Si       0.11437    0.31958    0.98576    1.000
    N854     N        0.12345    0.37935    0.89092    1.000
    Si855    Si       0.14661    0.25631    0.96168    1.000
    N856     N        0.14109    0.35527    0.99336    1.000
    Si857    Si       0.15401    0.48158    0.88858    1.000
    N858     N        0.15886    0.40398    0.94232    1.000
    N859     N        0.11944    0.49921    0.90844    1.000
    N860     N        0.14724    0.43903    0.88794    1.000
    Si861    Si       0.12644    0.41647    0.91878    1.000
    Si862    Si       0.14780    0.60669    0.02824    1.000
    N863     N        0.12820    0.59756    0.06623    1.000
    Si864    Si       0.13626    0.62383    0.09926    1.000
    N865     N        0.14181    0.52343    0.03082    1.000
    N866     N        0.15503    0.54076    0.10259    1.000
    Si867    Si       0.10960    0.54400    0.00930    1.000
    Si868    Si       0.11498    0.53942    0.12242    1.000
    Si869    Si       0.14036    0.50985    0.07151    1.000
    N870     N        0.12798    0.64398    0.01992    1.000
    Si871    Si       0.12398    0.67393    0.05232    1.000
    Si872    Si       0.14764    0.74028    0.06065    1.000
    N873     N        0.13758    0.72463    0.10093    1.000
    N874     N        0.12959    0.71242    0.03544    1.000
    N875     N        0.15504    0.65772    0.07868    1.000
    Si876    Si       0.10893    0.72539    0.99991    1.000
    N877     N        0.11315    0.55010    0.22567    1.000
    N878     N        0.11929    0.54302    0.16460    1.000
    N879     N        0.15088    0.60756    0.19315    1.000
    Si880    Si       0.14909    0.56403    0.18961    1.000
    N881     N        0.16165    0.60640    0.12828    1.000
    Si882    Si       0.12430    0.63209    0.22114    1.000
    N883     N        0.16728    0.73650    0.15638    1.000
    N884     N        0.13645    0.66677    0.24461    1.000
    N885     N        0.14445    0.66935    0.15297    1.000
    N886     N        0.15177    0.72869    0.22420    1.000
    Si887    Si       0.16445    0.70012    0.12947    1.000
    Si888    Si       0.13864    0.75776    0.12992    1.000
    Si889    Si       0.16815    0.75650    0.19448    1.000
    Si890    Si       0.14103    0.54213    0.26027    1.000
    N891     N        0.14194    0.54713    0.36145    1.000
    N892     N        0.16861    0.56851    0.27838    1.000
    N893     N        0.12450    0.65351    0.31719    1.000
    Si894    Si       0.15284    0.74211    0.34122    1.000
    N895     N        0.13146    0.72240    0.30514    1.000
    Si896    Si       0.14634    0.74585    0.26489    1.000
    Si897    Si       0.15589    0.67961    0.30057    1.000
    Si898    Si       0.11248    0.65629    0.35948    1.000
    N899     N        0.13357    0.54241    0.46998    1.000
    N900     N        0.12237    0.61878    0.43269    1.000
    Si901    Si       0.16273    0.62923    0.41751    1.000
    Si902    Si       0.11152    0.62874    0.47404    1.000
    N903     N        0.15201    0.65232    0.38322    1.000
    Si904    Si       0.13934    0.74782    0.41888    1.000
    N905     N        0.14690    0.72366    0.38253    1.000
    Si906    Si       0.12082    0.74916    0.49360    1.000
    N907     N        0.12302    0.72730    0.45392    1.000
    Si908    Si       0.14074    0.59736    0.53570    1.000
    N909     N        0.15047    0.55442    0.53445    1.000
    Si910    Si       0.14144    0.52362    0.50737    1.000
    N911     N        0.14496    0.61939    0.49884    1.000
    N912     N        0.10987    0.67825    0.55374    1.000
    N913     N        0.12753    0.63651    0.61628    1.000
    Si914    Si       0.15240    0.69266    0.54558    1.000
    N915     N        0.14931    0.73030    0.52259    1.000
    N916     N        0.16530    0.69891    0.58826    1.000
    Si917    Si       0.15813    0.61327    0.64023    1.000
    N918     N        0.12945    0.57754    0.64074    1.000
    N919     N        0.13749    0.62314    0.68087    1.000
    Si920    Si       0.14742    0.59663    0.71402    1.000
    N921     N        0.12784    0.51839    0.63254    1.000
    N922     N        0.13972    0.51315    0.70317    1.000
    N923     N        0.11222    0.57146    0.72603    1.000
    Si924    Si       0.16410    0.54760    0.63046    1.000
    N925     N        0.14997    0.62453    0.75001    1.000
    Si926    Si       0.15309    0.67493    0.62255    1.000
    N927     N        0.14432    0.74589    0.73007    1.000
    N928     N        0.12985    0.69424    0.65471    1.000
    Si929    Si       0.13830    0.66831    0.68872    1.000
    N930     N        0.10500    0.75436    0.62047    1.000
    N931     N        0.10704    0.66965    0.71950    1.000
    Si932    Si       0.14339    0.58403    0.81826    1.000
    N933     N        0.15131    0.58155    0.86373    1.000
    N934     N        0.16308    0.62142    0.81586    1.000
    N935     N        0.16668    0.55297    0.80375    1.000
    Si936    Si       0.11306    0.75764    0.81608    1.000
    Si937    Si       0.16135    0.63700    0.85655    1.000
    Si938    Si       0.16025    0.69272    0.80588    1.000
    N939     N        0.12055    0.67897    0.79001    1.000
    Si940    Si       0.11757    0.65235    0.75652    1.000
    N941     N        0.14892    0.73610    0.80400    1.000
    N942     N        0.16584    0.68060    0.84552    1.000
    Si943    Si       0.13057    0.59337    0.95573    1.000
    N944     N        0.12218    0.56297    0.92438    1.000
    Si945    Si       0.12698    0.52343    0.94231    1.000
    N946     N        0.16735    0.52207    0.96252    1.000
    Si947    Si       0.10993    0.57557    0.88398    1.000
    N948     N        0.13045    0.58067    0.99585    1.000
    N949     N        0.13461    0.74363    0.96985    1.000
    Si950    Si       0.11875    0.65760    0.97882    1.000
    Si951    Si       0.16609    0.64516    0.92237    1.000
    N952     N        0.13455    0.71072    0.90005    1.000
    Si953    Si       0.11932    0.74178    0.92723    1.000
    N954     N        0.13576    0.64401    0.89191    1.000
    N955     N        0.15420    0.67027    0.95714    1.000
    Si956    Si       0.14254    0.81057    0.07975    1.000
    N957     N        0.12382    0.77637    0.05939    1.000
    N958     N        0.13276    0.84643    0.01199    1.000
    N959     N        0.11808    0.84658    0.07237    1.000
    N960     N        0.15056    0.79780    0.11895    1.000
    Si961    Si       0.14920    0.88920    0.00723    1.000
    Si962    Si       0.12658    0.88852    0.07927    1.000
    N963     N        0.15071    0.98034    0.09865    1.000
    Si964    Si       0.12818    0.99580    0.06540    1.000
    N965     N        0.12686    0.96714    0.03140    1.000
    N966     N        0.15772    0.89829    0.04897    1.000
    N967     N        0.10843    0.90823    0.99829    1.000
    N968     N        0.13450    0.89171    0.12170    1.000
    Si969    Si       0.11769    0.87125    0.21184    1.000
    N970     N        0.14071    0.78892    0.18885    1.000
    N971     N        0.14315    0.85446    0.17750    1.000
    Si972    Si       0.13771    0.81702    0.15560    1.000
    N973     N        0.11578    0.83663    0.23721    1.000
    Si974    Si       0.11191    0.79621    0.21971    1.000
    Si975    Si       0.13110    0.97209    0.13604    1.000
    N976     N        0.14505    0.94204    0.16604    1.000
    N977     N        0.13104    0.91076    0.22672    1.000
    Si978    Si       0.14387    0.94742    0.20874    1.000
    N979     N        0.12777    0.98516    0.22373    1.000
    N980     N        0.13464    0.00740    0.15958    1.000
    N981     N        0.13721    0.78341    0.35182    1.000
    N982     N        0.15464    0.83761    0.30244    1.000
    Si983    Si       0.11652    0.84127    0.28182    1.000
    Si984    Si       0.15935    0.81918    0.34241    1.000
    N985     N        0.11504    0.77429    0.25714    1.000
    N986     N        0.13461    0.84195    0.37091    1.000
    Si987    Si       0.13386    0.91232    0.26881    1.000
    Si988    Si       0.12603    0.99106    0.26634    1.000
    N989     N        0.12309    0.95111    0.28383    1.000
    N990     N        0.12932    0.91232    0.35756    1.000
    Si991    Si       0.11869    0.94204    0.32781    1.000
    Si992    Si       0.13473    0.00385    0.36753    1.000
    Si993    Si       0.11859    0.85897    0.45099    1.000
    N994     N        0.14972    0.78281    0.48136    1.000
    N995     N        0.14308    0.84967    0.48885    1.000
    Si996    Si       0.11101    0.80697    0.38390    1.000
    Si997    Si       0.11796    0.88026    0.38283    1.000
    N998     N        0.13692    0.88660    0.42284    1.000
    N999     N        0.12967    0.98451    0.48311    1.000
    Si1000   Si       0.13698    0.99383    0.44106    1.000
    N1001    N        0.12447    0.97789    0.40183    1.000
    N1002    N        0.12988    0.84361    0.54913    1.000
    Si1003   Si       0.13740    0.81164    0.51342    1.000
    N1004    N        0.13686    0.81639    0.60931    1.000
    Si1005   Si       0.16253    0.82450    0.57389    1.000
    Si1006   Si       0.11261    0.87604    0.51573    1.000
    Si1007   Si       0.14447    0.96132    0.51747    1.000
    N1008    N        0.12437    0.98092    0.55323    1.000
    N1009    N        0.15693    0.94933    0.60193    1.000
    Si1010   Si       0.15827    0.98974    0.58142    1.000
    N1011    N        0.12203    0.92138    0.52444    1.000
    Si1012   Si       0.14028    0.77752    0.63085    1.000
    N1013    N        0.14373    0.78829    0.67346    1.000
    N1014    N        0.14950    0.82983    0.72025    1.000
    Si1015   Si       0.11744    0.76361    0.70072    1.000
    Si1016   Si       0.11225    0.84662    0.63302    1.000
    Si1017   Si       0.10735    0.83025    0.70722    1.000
    N1018    N        0.12247    0.94465    0.66010    1.000
    Si1019   Si       0.12836    0.92373    0.61903    1.000
    N1020    N        0.13844    0.88348    0.63351    1.000
    Si1021   Si       0.15525    0.93874    0.69199    1.000
    Si1022   Si       0.10409    0.98344    0.66069    1.000
    N1023    N        0.14633    0.94577    0.73514    1.000
    N1024    N        0.11678    0.77739    0.85403    1.000
    N1025    N        0.15873    0.86273    0.78695    1.000
    N1026    N        0.11450    0.78482    0.78230    1.000
    Si1027   Si       0.15237    0.76290    0.76838    1.000
    N1028    N        0.10855    0.91362    0.77797    1.000
    Si1029   Si       0.13351    0.89320    0.80543    1.000
    Si1030   Si       0.11659    0.97862    0.85536    1.000
    N1031    N        0.15941    0.97708    0.85610    1.000
    Si1032   Si       0.15823    0.00401    0.81961    1.000
    Si1033   Si       0.10494    0.94320    0.74532    1.000
    Si1034   Si       0.15632    0.77371    0.87413    1.000
    N1035    N        0.11482    0.84247    0.88661    1.000
    N1036    N        0.16192    0.85500    0.92639    1.000
    Si1037   Si       0.15859    0.84853    0.88237    1.000
    Si1038   Si       0.11720    0.85882    0.92795    1.000
    N1039    N        0.14542    0.77526    0.91551    1.000
    Si1040   Si       0.12543    0.92510    0.96022    1.000
    N1041    N        0.12268    0.96763    0.95757    1.000
    Si1042   Si       0.16059    0.98201    0.94449    1.000
    N1043    N        0.16510    0.91096    0.97214    1.000
    Si1044   Si       0.19044    0.10159    0.01239    1.000
    N1045    N        0.20703    0.10591    0.10858    1.000
    Si1046   Si       0.17333    0.05260    0.06715    1.000
    N1047    N        0.21588    0.05278    0.07018    1.000
    Si1048   Si       0.20390    0.13727    0.07742    1.000
    N1049    N        0.20538    0.13540    0.03391    1.000
    Si1050   Si       0.17940    0.24555    0.03645    1.000
    N1051    N        0.18210    0.20628    0.05776    1.000
    N1052    N        0.18441    0.18121    0.99618    1.000
    Si1053   Si       0.22328    0.16800    0.01084    1.000
    Si1054   Si       0.17667    0.08574    0.13352    1.000
    N1055    N        0.18177    0.02666    0.20900    1.000
    Si1056   Si       0.17558    0.01998    0.16492    1.000
    N1057    N        0.18744    0.09476    0.21061    1.000
    N1058    N        0.19982    0.05378    0.15152    1.000
    Si1059   Si       0.22497    0.17167    0.20076    1.000
    Si1060   Si       0.21944    0.21462    0.13937    1.000
    N1061    N        0.18297    0.16670    0.19212    1.000
    N1062    N        0.22385    0.24671    0.16802    1.000
    N1063    N        0.17917    0.19740    0.13404    1.000
    Si1064   Si       0.18363    0.05864    0.34150    1.000
    Si1065   Si       0.18784    0.09395    0.27807    1.000
    N1066    N        0.20892    0.07220    0.31029    1.000
    N1067    N        0.17144    0.01471    0.34732    1.000
    Si1068   Si       0.19275    0.24582    0.31593    1.000
    N1069    N        0.18019    0.23070    0.35699    1.000
    N1070    N        0.17516    0.20362    0.29797    1.000
    Si1071   Si       0.21436    0.19879    0.28064    1.000
    N1072    N        0.20160    0.06908    0.37948    1.000
    Si1073   Si       0.18286    0.09271    0.41065    1.000
    Si1074   Si       0.20287    0.03177    0.45211    1.000
    N1075    N        0.20607    0.12581    0.42777    1.000
    N1076    N        0.17558    0.06780    0.44581    1.000
    Si1077   Si       0.20945    0.12976    0.46977    1.000
    N1078    N        0.16787    0.12487    0.48278    1.000
    N1079    N        0.21715    0.02633    0.49323    1.000
    Si1080   Si       0.16846    0.23052    0.48204    1.000
    N1081    N        0.21795    0.19618    0.41442    1.000
    N1082    N        0.21207    0.23832    0.47231    1.000
    Si1083   Si       0.21473    0.22689    0.38328    1.000
    N1084    N        0.18875    0.08327    0.56299    1.000
    Si1085   Si       0.17848    0.12803    0.57173    1.000
    N1086    N        0.17042    0.01194    0.61767    1.000
    Si1087   Si       0.21327    0.01050    0.61929    1.000
    N1088    N        0.17929    0.01341    0.55024    1.000
    N1089    N        0.18129    0.15118    0.60595    1.000
    N1090    N        0.18689    0.15493    0.53894    1.000
    Si1091   Si       0.21334    0.23518    0.57485    1.000
    N1092    N        0.17030    0.22285    0.57341    1.000
    N1093    N        0.18100    0.05719    0.68542    1.000
    Si1094   Si       0.22213    0.05346    0.67269    1.000
    N1095    N        0.22188    0.08356    0.64236    1.000
    N1096    N        0.20247    0.18797    0.69076    1.000
    Si1097   Si       0.17260    0.23121    0.67349    1.000
    N1098    N        0.17114    0.20234    0.64175    1.000
    Si1099   Si       0.19006    0.16412    0.65131    1.000
    Si1100   Si       0.18329    0.19447    0.72934    1.000
    Si1101   Si       0.18693    0.07380    0.79435    1.000
    N1102    N        0.20825    0.10094    0.82057    1.000
    N1103    N        0.21230    0.05067    0.76633    1.000
    Si1104   Si       0.18611    0.13286    0.83754    1.000
    N1105    N        0.16650    0.04564    0.82070    1.000
    N1106    N        0.19739    0.23100    0.82702    1.000
    N1107    N        0.20288    0.21005    0.76485    1.000
    Si1108   Si       0.19778    0.24708    0.78738    1.000
    N1109    N        0.20924    0.15530    0.86653    1.000
    N1110    N        0.17076    0.16294    0.81025    1.000
    Si1111   Si       0.19603    0.04001    0.91529    1.000
    Si1112   Si       0.19049    0.11464    0.93582    1.000
    N1113    N        0.18372    0.08210    0.90807    1.000
    N1114    N        0.16921    0.10912    0.97370    1.000
    N1115    N        0.21795    0.03973    0.95212    1.000
    N1116    N        0.21622    0.00911    0.88789    1.000
    N1117    N        0.21397    0.21978    0.89810    1.000
    N1118    N        0.17140    0.25338    0.99645    1.000
    N1119    N        0.18359    0.15884    0.92944    1.000
    Si1120   Si       0.19108    0.18228    0.89370    1.000
    N1121    N        0.20819    0.30686    0.08967    1.000
    N1122    N        0.21326    0.37349    0.07117    1.000
    Si1123   Si       0.17239    0.37263    0.08547    1.000
    N1124    N        0.22029    0.26270    0.04293    1.000
    N1125    N        0.21782    0.44196    0.04209    1.000
    Si1126   Si       0.20689    0.48181    0.05547    1.000
    Si1127   Si       0.18660    0.42925    0.01384    1.000
    N1128    N        0.17274    0.41432    0.10442    1.000
    Si1129   Si       0.17125    0.50554    0.00129    1.000
    Si1130   Si       0.17766    0.34489    0.15978    1.000
    Si1131   Si       0.18563    0.26891    0.17131    1.000
    N1132    N        0.18038    0.36923    0.22641    1.000
    N1133    N        0.19735    0.31043    0.17974    1.000
    N1134    N        0.20722    0.37828    0.15307    1.000
    N1135    N        0.22094    0.28019    0.23534    1.000
    N1136    N        0.22337    0.41920    0.20740    1.000
    N1137    N        0.21247    0.49151    0.20253    1.000
    N1138    N        0.22390    0.44401    0.14619    1.000
    Si1139   Si       0.17260    0.49004    0.22701    1.000
    Si1140   Si       0.18052    0.41221    0.21393    1.000
    Si1141   Si       0.18962    0.41869    0.14314    1.000
    N1142    N        0.17093    0.44656    0.24040    1.000
    N1143    N        0.19524    0.35023    0.34298    1.000
    Si1144   Si       0.18313    0.31433    0.32040    1.000
    Si1145   Si       0.21416    0.36137    0.25743    1.000
    N1146    N        0.21279    0.28108    0.33502    1.000
    N1147    N        0.19493    0.32645    0.27775    1.000
    Si1148   Si       0.18482    0.29094    0.25599    1.000
    N1149    N        0.16703    0.27296    0.29107    1.000
    Si1150   Si       0.19841    0.39064    0.32729    1.000
    N1151    N        0.19837    0.39442    0.28286    1.000
    N1152    N        0.19373    0.45968    0.30619    1.000
    Si1153   Si       0.17639    0.43039    0.27950    1.000
    Si1154   Si       0.22299    0.45545    0.33666    1.000
    Si1155   Si       0.19687    0.35382    0.38579    1.000
    N1156    N        0.18330    0.30239    0.46410    1.000
    N1157    N        0.17697    0.37242    0.45590    1.000
    Si1158   Si       0.19640    0.26681    0.44228    1.000
    N1159    N        0.21628    0.26469    0.40449    1.000
    N1160    N        0.16930    0.32758    0.40228    1.000
    Si1161   Si       0.19903    0.40529    0.43930    1.000
    Si1162   Si       0.17658    0.42953    0.37947    1.000
    N1163    N        0.19741    0.39606    0.39767    1.000
    Si1164   Si       0.20127    0.46772    0.46498    1.000
    N1165    N        0.17545    0.44041    0.44394    1.000
    N1166    N        0.20475    0.46293    0.37543    1.000
    Si1167   Si       0.20611    0.49741    0.39806    1.000
    N1168    N        0.17239    0.49828    0.48728    1.000
    N1169    N        0.22779    0.48785    0.43534    1.000
    Si1170   Si       0.18818    0.31246    0.58930    1.000
    N1171    N        0.20974    0.27435    0.59675    1.000
    Si1172   Si       0.18300    0.29912    0.50728    1.000
    N1173    N        0.22246    0.29112    0.52528    1.000
    N1174    N        0.21915    0.33975    0.57498    1.000
    N1175    N        0.17007    0.33921    0.51885    1.000
    Si1176   Si       0.21495    0.38410    0.57046    1.000
    N1177    N        0.17187    0.45253    0.61739    1.000
    N1178    N        0.18523    0.47216    0.54880    1.000
    N1179    N        0.18420    0.41421    0.50714    1.000
    Si1180   Si       0.20589    0.49958    0.52112    1.000
    N1181    N        0.17457    0.40300    0.57095    1.000
    Si1182   Si       0.17067    0.48629    0.59016    1.000
    Si1183   Si       0.22637    0.41971    0.50480    1.000
    Si1184   Si       0.20546    0.34194    0.70831    1.000
    N1185    N        0.17364    0.33245    0.68109    1.000
    N1186    N        0.19995    0.26395    0.68235    1.000
    N1187    N        0.19329    0.32036    0.74266    1.000
    N1188    N        0.20941    0.38305    0.71673    1.000
    Si1189   Si       0.17388    0.43751    0.65925    1.000
    Si1190   Si       0.17095    0.39521    0.73274    1.000
    N1191    N        0.21522    0.43592    0.66764    1.000
    N1192    N        0.20407    0.50220    0.72457    1.000
    N1193    N        0.19396    0.33152    0.80962    1.000
    Si1194   Si       0.19462    0.35064    0.84902    1.000
    Si1195   Si       0.21866    0.31579    0.77827    1.000
    N1196    N        0.17557    0.38692    0.77617    1.000
    N1197    N        0.21305    0.45249    0.77559    1.000
    Si1198   Si       0.19504    0.41863    0.79971    1.000
    Si1199   Si       0.18389    0.47166    0.75205    1.000
    Si1200   Si       0.20431    0.26643    0.97009    1.000
    Si1201   Si       0.17196    0.37447    0.97205    1.000
    N1202    N        0.17926    0.27797    0.93672    1.000
    Si1203   Si       0.17196    0.31307    0.91407    1.000
    N1204    N        0.18956    0.34718    0.93962    1.000
    N1205    N        0.19329    0.31606    0.87675    1.000
    Si1206   Si       0.19341    0.38695    0.91744    1.000
    N1207    N        0.20394    0.39906    0.98968    1.000
    N1208    N        0.19388    0.49526    0.89939    1.000
    N1209    N        0.19058    0.38525    0.87599    1.000
    N1210    N        0.16987    0.46335    0.99618    1.000
    N1211    N        0.18852    0.61499    0.03574    1.000
    N1212    N        0.22295    0.56466    0.10562    1.000
    N1213    N        0.21010    0.51041    0.02129    1.000
    Si1214   Si       0.18224    0.56668    0.12364    1.000
    N1215    N        0.22214    0.63061    0.09286    1.000
    N1216    N        0.19008    0.74887    0.06025    1.000
    Si1217   Si       0.21788    0.71757    0.07339    1.000
    Si1218   Si       0.19528    0.64809    0.06253    1.000
    N1219    N        0.20248    0.69668    0.10890    1.000
    N1220    N        0.21827    0.68134    0.04802    1.000
    N1221    N        0.18563    0.55543    0.16501    1.000
    Si1222   Si       0.21587    0.53359    0.18791    1.000
    N1223    N        0.17682    0.53934    0.22383    1.000
    Si1224   Si       0.17022    0.63217    0.16193    1.000
    Si1225   Si       0.22629    0.66085    0.12273    1.000
    N1226    N        0.20266    0.66562    0.22742    1.000
    N1227    N        0.21125    0.64692    0.16228    1.000
    Si1228   Si       0.17091    0.69199    0.23510    1.000
    N1229    N        0.19798    0.58944    0.33933    1.000
    Si1230   Si       0.18783    0.60146    0.29790    1.000
    N1231    N        0.19859    0.52378    0.32345    1.000
    Si1232   Si       0.18238    0.55221    0.35175    1.000
    N1233    N        0.21931    0.60151    0.26424    1.000
    Si1234   Si       0.20657    0.56147    0.24869    1.000
    Si1235   Si       0.21831    0.64475    0.26224    1.000
    N1236    N        0.18600    0.64380    0.29517    1.000
    Si1237   Si       0.21373    0.66603    0.32078    1.000
    N1238    N        0.18217    0.69158    0.33724    1.000
    N1239    N        0.18297    0.70763    0.27461    1.000
    Si1240   Si       0.20736    0.74367    0.28719    1.000
    N1241    N        0.22620    0.64999    0.35865    1.000
    Si1242   Si       0.21686    0.61021    0.37433    1.000
    N1243    N        0.17140    0.51732    0.41713    1.000
    N1244    N        0.18881    0.59681    0.40538    1.000
    Si1245   Si       0.19381    0.55554    0.41995    1.000
    N1246    N        0.21520    0.54082    0.38344    1.000
    N1247    N        0.22361    0.55427    0.45309    1.000
    Si1248   Si       0.22616    0.57357    0.49257    1.000
    N1249    N        0.20858    0.75912    0.49158    1.000
    N1250    N        0.18051    0.76104    0.42468    1.000
    Si1251   Si       0.21667    0.74151    0.41363    1.000
    Si1252   Si       0.17298    0.69074    0.38104    1.000
    N1253    N        0.20802    0.69864    0.40552    1.000
    N1254    N        0.18397    0.64946    0.44981    1.000
    Si1255   Si       0.21955    0.67481    0.44399    1.000
    Si1256   Si       0.18054    0.64129    0.49201    1.000
    Si1257   Si       0.18858    0.56046    0.55874    1.000
    N1258    N        0.21106    0.54329    0.52177    1.000
    N1259    N        0.17942    0.53052    0.59132    1.000
    N1260    N        0.21443    0.61509    0.50368    1.000
    N1261    N        0.17486    0.60352    0.56310    1.000
    Si1262   Si       0.20684    0.62600    0.54676    1.000
    Si1263   Si       0.19416    0.72918    0.59455    1.000
    N1264    N        0.21026    0.74038    0.55609    1.000
    N1265    N        0.17940    0.66152    0.53112    1.000
    N1266    N        0.18955    0.58426    0.62754    1.000
    N1267    N        0.19037    0.52758    0.65946    1.000
    N1268    N        0.18421    0.57128    0.71220    1.000
    Si1269   Si       0.17966    0.52943    0.70205    1.000
    Si1270   Si       0.22203    0.59280    0.72256    1.000
    N1271    N        0.18274    0.64989    0.64545    1.000
    N1272    N        0.17846    0.68166    0.70178    1.000
    Si1273   Si       0.17861    0.72317    0.71544    1.000
    Si1274   Si       0.20940    0.65839    0.67957    1.000
    N1275    N        0.20345    0.74573    0.68484    1.000
    N1276    N        0.22124    0.61507    0.76104    1.000
    N1277    N        0.20930    0.50945    0.82742    1.000
    Si1278   Si       0.16877    0.51057    0.81158    1.000
    Si1279   Si       0.18271    0.63523    0.77664    1.000
    N1280    N        0.18928    0.67917    0.77815    1.000
    Si1281   Si       0.22403    0.70320    0.77111    1.000
    N1282    N        0.20619    0.73557    0.74732    1.000
    Si1283   Si       0.19265    0.58023    0.87700    1.000
    N1284    N        0.19300    0.62538    0.88608    1.000
    Si1285   Si       0.20866    0.58896    0.94617    1.000
    Si1286   Si       0.20014    0.52099    0.93420    1.000
    N1287    N        0.20290    0.55935    0.91248    1.000
    N1288    N        0.16974    0.60788    0.94497    1.000
    N1289    N        0.22176    0.57347    0.98457    1.000
    N1290    N        0.18820    0.74372    0.87206    1.000
    N1291    N        0.19763    0.68209    0.91148    1.000
    Si1292   Si       0.22666    0.64806    0.90071    1.000
    N1293    N        0.21606    0.69614    0.98366    1.000
    Si1294   Si       0.18615    0.69973    0.95212    1.000
    Si1295   Si       0.17351    0.70455    0.88124    1.000
    N1296    N        0.19901    0.74119    0.94407    1.000
    Si1297   Si       0.21258    0.78905    0.05926    1.000
    N1298    N        0.17777    0.81572    0.05397    1.000
    Si1299   Si       0.17411    0.82791    0.01201    1.000
    Si1300   Si       0.19140    0.91752    0.06470    1.000
    N1301    N        0.19079    0.92888    0.10901    1.000
    Si1302   Si       0.19635    0.97628    0.09688    1.000
    N1303    N        0.19470    0.95956    0.05146    1.000
    Si1304   Si       0.16775    0.97939    0.02207    1.000
    N1305    N        0.22168    0.92857    0.00286    1.000
    N1306    N        0.19524    0.84314    0.22390    1.000
    Si1307   Si       0.18765    0.85513    0.18224    1.000
    Si1308   Si       0.20664    0.80059    0.23539    1.000
    N1309    N        0.20960    0.77082    0.20346    1.000
    N1310    N        0.21016    0.83231    0.15197    1.000
    N1311    N        0.18683    0.95575    0.21867    1.000
    Si1312   Si       0.19103    0.99519    0.23783    1.000
    N1313    N        0.19123    0.89680    0.17470    1.000
    Si1314   Si       0.16626    0.91293    0.14237    1.000
    Si1315   Si       0.21179    0.92646    0.19861    1.000
    N1316    N        0.19961    0.99510    0.13746    1.000
    N1317    N        0.19919    0.82161    0.35650    1.000
    Si1318   Si       0.18271    0.87111    0.30704    1.000
    N1319    N        0.18433    0.77416    0.26263    1.000
    Si1320   Si       0.21793    0.78523    0.34636    1.000
    N1321    N        0.22246    0.85836    0.28733    1.000
    Si1322   Si       0.20695    0.87530    0.24985    1.000
    Si1323   Si       0.21955    0.85858    0.36848    1.000
    N1324    N        0.19085    0.75736    0.32408    1.000
    N1325    N        0.19396    0.88714    0.34586    1.000
    N1326    N        0.17411    0.89779    0.27566    1.000
    Si1327   Si       0.18332    0.98758    0.31459    1.000
    N1328    N        0.17012    0.99787    0.27527    1.000
    Si1329   Si       0.17223    0.92155    0.36066    1.000
    N1330    N        0.16665    0.95174    0.33007    1.000
    N1331    N        0.21187    0.87028    0.41128    1.000
    Si1332   Si       0.18823    0.78422    0.46061    1.000
    N1333    N        0.19908    0.82483    0.45777    1.000
    Si1334   Si       0.18569    0.85626    0.48444    1.000
    N1335    N        0.18376    0.93245    0.40135    1.000
    Si1336   Si       0.17913    0.89574    0.42614    1.000
    Si1337   Si       0.20166    0.96698    0.41895    1.000
    Si1338   Si       0.21067    0.92910    0.48722    1.000
    N1339    N        0.17971    0.99988    0.43662    1.000
    N1340    N        0.18728    0.89799    0.46924    1.000
    N1341    N        0.20292    0.83295    0.58850    1.000
    N1342    N        0.21405    0.85361    0.51733    1.000
    N1343    N        0.17718    0.76032    0.61881    1.000
    N1344    N        0.17263    0.79734    0.53876    1.000
    Si1345   Si       0.18238    0.75761    0.52488    1.000
    Si1346   Si       0.20927    0.99481    0.52210    1.000
    N1347    N        0.18823    0.95790    0.51121    1.000
    N1348    N        0.22241    0.97019    0.60917    1.000
    N1349    N        0.19028    0.84039    0.65765    1.000
    N1350    N        0.21322    0.80324    0.71218    1.000
    Si1351   Si       0.17691    0.81251    0.69003    1.000
    Si1352   Si       0.22200    0.83362    0.62767    1.000
    Si1353   Si       0.21278    0.75839    0.64365    1.000
    Si1354   Si       0.17351    0.87900    0.65474    1.000
    N1355    N        0.20198    0.90278    0.63229    1.000
    N1356    N        0.16811    0.89535    0.69491    1.000
    N1357    N        0.18892    0.95554    0.66964    1.000
    Si1358   Si       0.21891    0.97848    0.68893    1.000
    Si1359   Si       0.20370    0.89102    0.72100    1.000
    Si1360   Si       0.19259    0.94376    0.62592    1.000
    N1361    N        0.19797    0.00082    0.72084    1.000
    N1362    N        0.18215    0.79264    0.77275    1.000
    Si1363   Si       0.21864    0.76791    0.78611    1.000
    Si1364   Si       0.21926    0.79667    0.86105    1.000
    Si1365   Si       0.17165    0.83336    0.76003    1.000
    N1366    N        0.20912    0.85628    0.75353    1.000
    Si1367   Si       0.19648    0.88614    0.78368    1.000
    Si1368   Si       0.19346    0.91248    0.84117    1.000
    N1369    N        0.17877    0.98766    0.78556    1.000
    N1370    N        0.21686    0.94522    0.85797    1.000
    N1371    N        0.20678    0.92333    0.75442    1.000
    N1372    N        0.16928    0.92006    0.80592    1.000
    Si1373   Si       0.20840    0.00685    0.76338    1.000
    Si1374   Si       0.17180    0.94699    0.77022    1.000
    N1375    N        0.16914    0.88708    0.86458    1.000
    N1376    N        0.17821    0.81226    0.86904    1.000
    N1377    N        0.18451    0.80034    0.97969    1.000
    Si1378   Si       0.18708    0.87472    0.95526    1.000
    Si1379   Si       0.16785    0.76955    0.95332    1.000
    N1380    N        0.19474    0.86248    0.99668    1.000
    Si1381   Si       0.19274    0.97115    0.88332    1.000
    N1382    N        0.18149    0.98338    0.98222    1.000
    Si1383   Si       0.20525    0.93606    0.96156    1.000
    Si1384   Si       0.22138    0.00252    0.97487    1.000
    N1385    N        0.18579    0.95397    0.92118    1.000
    N1386    N        0.22351    0.89766    0.94200    1.000
    Si1387   Si       0.23857    0.04368    0.03421    1.000
    N1388    N        0.26700    0.10460    0.08210    1.000
    Si1389   Si       0.23753    0.07690    0.09883    1.000
    Si1390   Si       0.27254    0.01620    0.08962    1.000
    N1391    N        0.22619    0.07500    0.00730    1.000
    N1392    N        0.27758    0.04227    0.05460    1.000
    N1393    N        0.25763    0.04374    0.11913    1.000
    N1394    N        0.24674    0.20251    0.02631    1.000
    Si1395   Si       0.27171    0.14792    0.08727    1.000
    N1396    N        0.23400    0.16784    0.08367    1.000
    N1397    N        0.22834    0.23141    0.10145    1.000
    Si1398   Si       0.22807    0.20710    0.06569    1.000
    Si1399   Si       0.26640    0.23086    0.99869    1.000
    Si1400   Si       0.23260    0.02362    0.14695    1.000
    Si1401   Si       0.25793    0.02441    0.21786    1.000
    N1402    N        0.26136    0.06587    0.20980    1.000
    Si1403   Si       0.23103    0.09580    0.21807    1.000
    N1404    N        0.22581    0.18843    0.24077    1.000
    Si1405   Si       0.28352    0.19070    0.15520    1.000
    N1406    N        0.24871    0.13702    0.21079    1.000
    Si1407   Si       0.26464    0.25285    0.18454    1.000
    N1408    N        0.24036    0.18377    0.16177    1.000
    N1409    N        0.27992    0.24483    0.22539    1.000
    Si1410   Si       0.24895    0.08118    0.29591    1.000
    N1411    N        0.27142    0.10961    0.31959    1.000
    N1412    N        0.27075    0.04441    0.29050    1.000
    N1413    N        0.22935    0.10393    0.26031    1.000
    N1414    N        0.26331    0.02503    0.36302    1.000
    N1415    N        0.22784    0.16151    0.29682    1.000
    Si1416   Si       0.24365    0.14813    0.25711    1.000
    Si1417   Si       0.25266    0.14778    0.32798    1.000
    N1418    N        0.24689    0.22873    0.35580    1.000
    N1419    N        0.22883    0.23790    0.28901    1.000
    N1420    N        0.23173    0.15043    0.36409    1.000
    N1421    N        0.23168    0.09597    0.48727    1.000
    N1422    N        0.27288    0.08319    0.39356    1.000
    Si1423   Si       0.24076    0.05327    0.39166    1.000
    N1424    N        0.24054    0.03814    0.43139    1.000
    Si1425   Si       0.28323    0.02825    0.44114    1.000
    N1426    N        0.27517    0.21181    0.45232    1.000
    Si1427   Si       0.22957    0.15620    0.40517    1.000
    N1428    N        0.27248    0.15414    0.41842    1.000
    Si1429   Si       0.23354    0.20496    0.45426    1.000
    N1430    N        0.22172    0.17029    0.48160    1.000
    N1431    N        0.25842    0.06266    0.54142    1.000
    N1432    N        0.24543    0.11210    0.58763    1.000
    N1433    N        0.23663    0.03548    0.59388    1.000
    Si1434   Si       0.23035    0.07396    0.57409    1.000
    Si1435   Si       0.24879    0.05788    0.49993    1.000
    Si1436   Si       0.26750    0.01271    0.56978    1.000
    Si1437   Si       0.22392    0.17636    0.52446    1.000
    Si1438   Si       0.27510    0.13883    0.57242    1.000
    N1439    N        0.26427    0.16280    0.53585    1.000
    N1440    N        0.24415    0.22279    0.60546    1.000
    Si1441   Si       0.23336    0.25192    0.50946    1.000
    N1442    N        0.22741    0.21822    0.53508    1.000
    Si1443   Si       0.24732    0.11499    0.63194    1.000
    N1444    N        0.25057    0.06410    0.70175    1.000
    N1445    N        0.22671    0.01172    0.66017    1.000
    N1446    N        0.27382    0.13391    0.69629    1.000
    Si1447   Si       0.25552    0.18766    0.62703    1.000
    N1448    N        0.26877    0.19677    0.66889    1.000
    Si1449   Si       0.27403    0.13555    0.73942    1.000
    N1450    N        0.23313    0.15301    0.64772    1.000
    N1451    N        0.25175    0.17373    0.73654    1.000
    Si1452   Si       0.24366    0.16993    0.69169    1.000
    Si1453   Si       0.24674    0.11244    0.80498    1.000
    N1454    N        0.25172    0.10634    0.76052    1.000
    N1455    N        0.26944    0.01931    0.84065    1.000
    Si1456   Si       0.24519    0.06626    0.74452    1.000
    Si1457   Si       0.22852    0.23335    0.85737    1.000
    N1458    N        0.24605    0.15555    0.80718    1.000
    Si1459   Si       0.24796    0.16314    0.84899    1.000
    N1460    N        0.26781    0.21754    0.78853    1.000
    N1461    N        0.26282    0.20381    0.85572    1.000
    Si1462   Si       0.23899    0.18670    0.77725    1.000
    Si1463   Si       0.26631    0.25293    0.76479    1.000
    N1464    N        0.23206    0.10924    0.94635    1.000
    Si1465   Si       0.24178    0.07316    0.96721    1.000
    N1466    N        0.27751    0.01264    0.92142    1.000
    Si1467   Si       0.24489    0.22070    0.92801    1.000
    N1468    N        0.23716    0.23695    0.96634    1.000
    N1469    N        0.27737    0.14569    0.87551    1.000
    N1470    N        0.25721    0.14950    0.98981    1.000
    N1471    N        0.25960    0.17902    0.92915    1.000
    Si1472   Si       0.26081    0.14095    0.94674    1.000
    N1473    N        0.24972    0.32830    0.04012    1.000
    N1474    N        0.27137    0.28113    0.08650    1.000
    Si1475   Si       0.27339    0.35343    0.01260    1.000
    Si1476   Si       0.23827    0.33768    0.08063    1.000
    Si1477   Si       0.24172    0.29237    0.02001    1.000
    N1478    N        0.26412    0.34545    0.11527    1.000
    N1479    N        0.28083    0.26956    0.01726    1.000
    Si1480   Si       0.22972    0.27022    0.08445    1.000
    N1481    N        0.26020    0.41604    0.09786    1.000
    Si1482   Si       0.24043    0.40789    0.05727    1.000
    N1483    N        0.27358    0.39198    0.03477    1.000
    Si1484   Si       0.24715    0.45781    0.11197    1.000
    N1485    N        0.22765    0.49195    0.09225    1.000
    N1486    N        0.23907    0.35160    0.22028    1.000
    N1487    N        0.26707    0.29772    0.18943    1.000
    Si1488   Si       0.23061    0.31093    0.20637    1.000
    Si1489   Si       0.27776    0.36017    0.24024    1.000
    Si1490   Si       0.23186    0.38105    0.18951    1.000
    Si1491   Si       0.25045    0.38529    0.12736    1.000
    Si1492   Si       0.23277    0.45683    0.18612    1.000
    N1493    N        0.26646    0.39045    0.16590    1.000
    N1494    N        0.27527    0.45618    0.19311    1.000
    N1495    N        0.26734    0.28948    0.28390    1.000
    N1496    N        0.25797    0.36585    0.27818    1.000
    N1497    N        0.27159    0.29035    0.35466    1.000
    N1498    N        0.28329    0.36730    0.34755    1.000
    Si1499   Si       0.25737    0.26546    0.32376    1.000
    Si1500   Si       0.25197    0.25949    0.25747    1.000
    Si1501   Si       0.26665    0.38769    0.31305    1.000
    N1502    N        0.25733    0.47935    0.32477    1.000
    N1503    N        0.23545    0.41013    0.34129    1.000
    Si1504   Si       0.26609    0.40175    0.37412    1.000
    Si1505   Si       0.23096    0.29292    0.37419    1.000
    N1506    N        0.25679    0.32427    0.45712    1.000
    Si1507   Si       0.26736    0.34024    0.41869    1.000
    N1508    N        0.23453    0.33053    0.39366    1.000
    Si1509   Si       0.28206    0.30932    0.48820    1.000
    N1510    N        0.27187    0.26702    0.49233    1.000
    N1511    N        0.27016    0.38317    0.41352    1.000
    N1512    N        0.23584    0.41506    0.46148    1.000
    Si1513   Si       0.27743    0.40671    0.44909    1.000
    Si1514   Si       0.24692    0.31225    0.55360    1.000
    N1515    N        0.27143    0.28998    0.58275    1.000
    N1516    N        0.27390    0.33508    0.52535    1.000
    Si1517   Si       0.25082    0.26490    0.61280    1.000
    Si1518   Si       0.27839    0.37667    0.52255    1.000
    N1519    N        0.22653    0.46562    0.49948    1.000
    N1520    N        0.24029    0.39530    0.53452    1.000
    Si1521   Si       0.26632    0.48875    0.58324    1.000
    N1522    N        0.23915    0.40634    0.60192    1.000
    Si1523   Si       0.26669    0.48211    0.50653    1.000
    N1524    N        0.23295    0.48489    0.61305    1.000
    N1525    N        0.25533    0.50485    0.54411    1.000
    Si1526   Si       0.28089    0.41024    0.58745    1.000
    N1527    N        0.28416    0.45155    0.57265    1.000
    Si1528   Si       0.23964    0.28132    0.68782    1.000
    N1529    N        0.26579    0.27380    0.65291    1.000
    N1530    N        0.24193    0.32479    0.69343    1.000
    Si1531   Si       0.27869    0.34904    0.68791    1.000
    N1532    N        0.25843    0.26089    0.72142    1.000
    N1533    N        0.26352    0.42424    0.73385    1.000
    Si1534   Si       0.23607    0.41246    0.69845    1.000
    N1535    N        0.27680    0.44741    0.64535    1.000
    N1536    N        0.25295    0.50632    0.67670    1.000
    Si1537   Si       0.23513    0.44381    0.63046    1.000
    N1538    N        0.26472    0.38796    0.67632    1.000
    N1539    N        0.25583    0.33764    0.77801    1.000
    N1540    N        0.24473    0.34311    0.85081    1.000
    Si1541   Si       0.25365    0.36233    0.81378    1.000
    N1542    N        0.24759    0.27126    0.86388    1.000
    N1543    N        0.23097    0.27405    0.78059    1.000
    Si1544   Si       0.25388    0.45388    0.76600    1.000
    Si1545   Si       0.25802    0.42591    0.83700    1.000
    N1546    N        0.23636    0.45246    0.86193    1.000
    N1547    N        0.23029    0.39874    0.81519    1.000
    N1548    N        0.27596    0.44880    0.80426    1.000
    N1549    N        0.26566    0.49388    0.75227    1.000
    Si1550   Si       0.22299    0.49472    0.86736    1.000
    Si1551   Si       0.23607    0.31037    0.87763    1.000
    N1552    N        0.25238    0.36134    0.97479    1.000
    N1553    N        0.25175    0.31884    0.91538    1.000
    Si1554   Si       0.22985    0.33343    0.95086    1.000
    N1555    N        0.22476    0.30333    0.98181    1.000
    N1556    N        0.27769    0.40946    0.87396    1.000
    N1557    N        0.26905    0.46805    0.91916    1.000
    N1558    N        0.23117    0.40847    0.92795    1.000
    N1559    N        0.27990    0.42618    0.97672    1.000
    Si1560   Si       0.27549    0.50427    0.94104    1.000
    Si1561   Si       0.25032    0.43480    0.89850    1.000
    Si1562   Si       0.24286    0.40296    0.96852    1.000
    N1563    N        0.25374    0.58249    0.04921    1.000
    Si1564   Si       0.24406    0.52718    0.11127    1.000
    Si1565   Si       0.24804    0.59543    0.08928    1.000
    N1566    N        0.27795    0.52772    0.01578    1.000
    Si1567   Si       0.22730    0.59990    0.01887    1.000
    Si1568   Si       0.23879    0.53359    0.99721    1.000
    N1569    N        0.28063    0.53275    0.08922    1.000
    Si1570   Si       0.28488    0.55147    0.05049    1.000
    N1571    N        0.24826    0.63557    0.00602    1.000
    Si1572   Si       0.24478    0.67996    0.01322    1.000
    N1573    N        0.25674    0.73369    0.07917    1.000
    N1574    N        0.27203    0.71348    0.00351    1.000
    N1575    N        0.24695    0.52319    0.15503    1.000
    Si1576   Si       0.26635    0.59285    0.20890    1.000
    N1577    N        0.23387    0.56454    0.21217    1.000
    Si1578   Si       0.23974    0.74450    0.18879    1.000
    N1579    N        0.24708    0.70096    0.18782    1.000
    N1580    N        0.26211    0.63473    0.21365    1.000
    Si1581   Si       0.23183    0.66215    0.19681    1.000
    Si1582   Si       0.27474    0.70999    0.15013    1.000
    N1583    N        0.24536    0.74515    0.14588    1.000
    N1584    N        0.26722    0.67510    0.12557    1.000
    N1585    N        0.27946    0.75701    0.20359    1.000
    N1586    N        0.23670    0.53755    0.27195    1.000
    N1587    N        0.26861    0.54359    0.33839    1.000
    Si1588   Si       0.24177    0.51975    0.31109    1.000
    Si1589   Si       0.27455    0.54370    0.25020    1.000
    N1590    N        0.25011    0.73395    0.28452    1.000
    N1591    N        0.24399    0.66654    0.28815    1.000
    Si1592   Si       0.27416    0.69694    0.28121    1.000
    N1593    N        0.27454    0.70435    0.36995    1.000
    Si1594   Si       0.27673    0.74736    0.37223    1.000
    Si1595   Si       0.25670    0.55192    0.37699    1.000
    N1596    N        0.25691    0.59497    0.38346    1.000
    Si1597   Si       0.25265    0.52118    0.44239    1.000
    N1598    N        0.27599    0.52891    0.40804    1.000
    N1599    N        0.27696    0.51285    0.47864    1.000
    Si1600   Si       0.23693    0.72587    0.48704    1.000
    Si1601   Si       0.24483    0.67893    0.38571    1.000
    N1602    N        0.28112    0.63557    0.48107    1.000
    N1603    N        0.25426    0.66015    0.42389    1.000
    N1604    N        0.24835    0.73311    0.44312    1.000
    N1605    N        0.22975    0.68063    0.48442    1.000
    Si1606   Si       0.25571    0.55075    0.54389    1.000
    N1607    N        0.26765    0.57412    0.50851    1.000
    Si1608   Si       0.22956    0.58766    0.61329    1.000
    N1609    N        0.22890    0.57629    0.57010    1.000
    N1610    N        0.25646    0.62239    0.62259    1.000
    N1611    N        0.24871    0.64394    0.55098    1.000
    Si1612   Si       0.27362    0.72193    0.61233    1.000
    Si1613   Si       0.27337    0.64398    0.58649    1.000
    N1614    N        0.26456    0.72820    0.52176    1.000
    Si1615   Si       0.24859    0.64629    0.50873    1.000
    N1616    N        0.23094    0.72623    0.61914    1.000
    Si1617   Si       0.24983    0.75561    0.55275    1.000
    N1618    N        0.28331    0.75072    0.58153    1.000
    N1619    N        0.28766    0.68316    0.59872    1.000
    N1620    N        0.25291    0.55372    0.62959    1.000
    N1621    N        0.22937    0.62039    0.68926    1.000
    N1622    N        0.25225    0.55994    0.72424    1.000
    Si1623   Si       0.22846    0.51843    0.64295    1.000
    Si1624   Si       0.24611    0.51541    0.71835    1.000
    Si1625   Si       0.27627    0.71137    0.68553    1.000
    N1626    N        0.24990    0.67794    0.67304    1.000
    N1627    N        0.26327    0.73785    0.71673    1.000
    Si1628   Si       0.26492    0.63581    0.66283    1.000
    Si1629   Si       0.26014    0.60661    0.85079    1.000
    Si1630   Si       0.23845    0.54181    0.82975    1.000
    N1631    N        0.26838    0.61277    0.80751    1.000
    N1632    N        0.27316    0.54417    0.80286    1.000
    N1633    N        0.25832    0.52192    0.86645    1.000
    Si1634   Si       0.26194    0.63366    0.76977    1.000
    N1635    N        0.22604    0.57902    0.85014    1.000
    Si1636   Si       0.26960    0.73433    0.82966    1.000
    N1637    N        0.23912    0.73285    0.80101    1.000
    N1638    N        0.25088    0.71714    0.86651    1.000
    Si1639   Si       0.27607    0.68293    0.86377    1.000
    N1640    N        0.25398    0.67559    0.75744    1.000
    N1641    N        0.25638    0.64617    0.87045    1.000
    N1642    N        0.23607    0.62303    0.93551    1.000
    Si1643   Si       0.26503    0.62674    0.96694    1.000
    N1644    N        0.23566    0.51316    0.95795    1.000
    Si1645   Si       0.24193    0.73101    0.96993    1.000
    Si1646   Si       0.22881    0.73466    0.90290    1.000
    N1647    N        0.25719    0.71470    0.93140    1.000
    N1648    N        0.26425    0.85329    0.10745    1.000
    N1649    N        0.23460    0.79340    0.09597    1.000
    Si1650   Si       0.26521    0.76522    0.11350    1.000
    N1651    N        0.23216    0.80256    0.02347    1.000
    Si1652   Si       0.26532    0.88545    0.07874    1.000
    N1653    N        0.24006    0.98547    0.08993    1.000
    Si1654   Si       0.23448    0.96336    0.03039    1.000
    N1655    N        0.27268    0.95241    0.04592    1.000
    Si1656   Si       0.27255    0.95529    0.08832    1.000
    N1657    N        0.27391    0.91812    0.10589    1.000
    N1658    N        0.23305    0.00387    0.01596    1.000
    N1659    N        0.22724    0.89111    0.05667    1.000
    Si1660   Si       0.22808    0.88639    0.01300    1.000
    Si1661   Si       0.24201    0.82171    0.12703    1.000
    N1662    N        0.27934    0.80052    0.14123    1.000
    Si1663   Si       0.28214    0.78567    0.23553    1.000
    Si1664   Si       0.27761    0.91274    0.14934    1.000
    N1665    N        0.24433    0.93414    0.17250    1.000
    Si1666   Si       0.27327    0.96530    0.18373    1.000
    Si1667   Si       0.27582    0.91579    0.23977    1.000
    N1668    N        0.23222    0.90691    0.23165    1.000
    N1669    N        0.25683    0.00488    0.17857    1.000
    N1670    N        0.28548    0.95399    0.22266    1.000
    N1671    N        0.23265    0.00289    0.24724    1.000
    N1672    N        0.24875    0.79458    0.31737    1.000
    Si1673   Si       0.25253    0.82780    0.28852    1.000
    N1674    N        0.25941    0.87390    0.36137    1.000
    Si1675   Si       0.27624    0.76473    0.30201    1.000
    N1676    N        0.24777    0.80482    0.25034    1.000
    Si1677   Si       0.25155    0.98549    0.35411    1.000
    N1678    N        0.27389    0.95113    0.34412    1.000
    Si1679   Si       0.25085    0.00518    0.28645    1.000
    N1680    N        0.22553    0.98904    0.31838    1.000
    Si1681   Si       0.27792    0.91380    0.36739    1.000
    N1682    N        0.26054    0.85293    0.46929    1.000
    N1683    N        0.25884    0.81932    0.40878    1.000
    Si1684   Si       0.23431    0.84072    0.43637    1.000
    N1685    N        0.23459    0.76039    0.37888    1.000
    N1686    N        0.22832    0.94975    0.45306    1.000
    N1687    N        0.23860    0.97364    0.39526    1.000
    Si1688   Si       0.26482    0.95717    0.42870    1.000
    N1689    N        0.25480    0.79856    0.54361    1.000
    N1690    N        0.26611    0.85848    0.55458    1.000
    Si1691   Si       0.25570    0.87507    0.51004    1.000
    Si1692   Si       0.27813    0.88223    0.58956    1.000
    Si1693   Si       0.22856    0.83128    0.55127    1.000
    Si1694   Si       0.26214    0.95443    0.60765    1.000
    N1695    N        0.24694    0.98235    0.54376    1.000
    N1696    N        0.24210    0.91526    0.51305    1.000
    Si1697   Si       0.26657    0.94384    0.53666    1.000
    N1698    N        0.27349    0.92649    0.57556    1.000
    N1699    N        0.25493    0.86345    0.62279    1.000
    Si1700   Si       0.23845    0.82550    0.74105    1.000
    N1701    N        0.27571    0.84499    0.73156    1.000
    N1702    N        0.23670    0.79443    0.63583    1.000
    Si1703   Si       0.27606    0.88630    0.72116    1.000
    Si1704   Si       0.22842    0.76244    0.71866    1.000
    N1705    N        0.23822    0.88858    0.69446    1.000
    N1706    N        0.25170    0.95751    0.70797    1.000
    N1707    N        0.26546    0.93211    0.64416    1.000
    Si1708   Si       0.24119    0.89630    0.65074    1.000
    Si1709   Si       0.24992    0.86168    0.84426    1.000
    N1710    N        0.25199    0.78820    0.76290    1.000
    Si1711   Si       0.26698    0.80320    0.80105    1.000
    N1712    N        0.22616    0.79324    0.82009    1.000
    N1713    N        0.27762    0.84249    0.81607    1.000
    N1714    N        0.22038    0.88404    0.82102    1.000
    Si1715   Si       0.25799    0.93730    0.85462    1.000
    N1716    N        0.24276    0.98383    0.77515    1.000
    Si1717   Si       0.27229    0.99119    0.80585    1.000
    N1718    N        0.27091    0.89607    0.86478    1.000
    N1719    N        0.27389    0.91256    0.75427    1.000
    Si1720   Si       0.24549    0.94757    0.75158    1.000
    N1721    N        0.27640    0.94590    0.81466    1.000
    N1722    N        0.24417    0.83266    0.87392    1.000
    N1723    N        0.23900    0.83009    0.94761    1.000
    N1724    N        0.23624    0.77646    0.89809    1.000
    N1725    N        0.25716    0.77167    0.96734    1.000
    Si1726   Si       0.25605    0.81101    0.91161    1.000
    Si1727   Si       0.25705    0.86940    0.94971    1.000
    Si1728   Si       0.22779    0.80312    0.98063    1.000
    N1729    N        0.26235    0.87566    0.99236    1.000
    Si1730   Si       0.26122    0.00449    0.88193    1.000
    N1731    N        0.24084    0.96719    0.95802    1.000
    Si1732   Si       0.29693    0.08283    0.05783    1.000
    N1733    N        0.30383    0.09969    0.01930    1.000
    N1734    N        0.33815    0.07516    0.07224    1.000
    N1735    N        0.30124    0.22576    0.08633    1.000
    Si1736   Si       0.29518    0.14389    0.01213    1.000
    Si1737   Si       0.32069    0.19280    0.06592    1.000
    N1738    N        0.29402    0.15980    0.05207    1.000
    Si1739   Si       0.29526    0.25602    0.11692    1.000
    N1740    N        0.34017    0.21417    0.03400    1.000
    N1741    N        0.31232    0.10960    0.20322    1.000
    Si1742   Si       0.30749    0.06565    0.21499    1.000
    N1743    N        0.30090    0.02224    0.23293    1.000
    N1744    N        0.33517    0.05544    0.18113    1.000
    N1745    N        0.33877    0.11595    0.13110    1.000
    Si1746   Si       0.34077    0.09812    0.17119    1.000
    Si1747   Si       0.34439    0.18345    0.19544    1.000
    N1748    N        0.30269    0.17683    0.19192    1.000
    Si1749   Si       0.32381    0.25299    0.22869    1.000
    N1750    N        0.28699    0.23468    0.15252    1.000
    Si1751   Si       0.33590    0.15833    0.12695    1.000
    Si1752   Si       0.29123    0.14368    0.21586    1.000
    N1753    N        0.29243    0.16375    0.12333    1.000
    N1754    N        0.32111    0.06985    0.34262    1.000
    Si1755   Si       0.31231    0.11172    0.33502    1.000
    Si1756   Si       0.31171    0.03883    0.27669    1.000
    N1757    N        0.33547    0.13014    0.30211    1.000
    N1758    N        0.32509    0.07346    0.25587    1.000
    Si1759   Si       0.31392    0.16559    0.28951    1.000
    N1760    N        0.29314    0.24016    0.31686    1.000
    Si1761   Si       0.33371    0.23906    0.30092    1.000
    N1762    N        0.33947    0.20011    0.28459    1.000
    N1763    N        0.28657    0.17457    0.32404    1.000
    N1764    N        0.28649    0.15100    0.25931    1.000
    Si1765   Si       0.28549    0.21050    0.34736    1.000
    N1766    N        0.31614    0.13116    0.37404    1.000
    Si1767   Si       0.29826    0.05066    0.37203    1.000
    Si1768   Si       0.29443    0.11789    0.40957    1.000
    N1769    N        0.32570    0.10945    0.43755    1.000
    N1770    N        0.31301    0.03411    0.40905    1.000
    N1771    N        0.28610    0.04661    0.47917    1.000
    N1772    N        0.30858    0.21201    0.38286    1.000
    Si1773   Si       0.29906    0.23787    0.47790    1.000
    N1774    N        0.33354    0.24894    0.45305    1.000
    N1775    N        0.33737    0.17671    0.42870    1.000
    Si1776   Si       0.29602    0.19044    0.42095    1.000
    N1777    N        0.31253    0.11238    0.56904    1.000
    N1778    N        0.32777    0.07424    0.52157    1.000
    Si1779   Si       0.30068    0.06712    0.55630    1.000
    N1780    N        0.30486    0.05422    0.59703    1.000
    N1781    N        0.30360    0.01947    0.54419    1.000
    Si1782   Si       0.31739    0.09370    0.60929    1.000
    Si1783   Si       0.31859    0.03567    0.50374    1.000
    N1784    N        0.31380    0.21767    0.51147    1.000
    Si1785   Si       0.32623    0.17506    0.60375    1.000
    Si1786   Si       0.30574    0.17502    0.52350    1.000
    N1787    N        0.32570    0.18577    0.56056    1.000
    N1788    N        0.33003    0.14570    0.50400    1.000
    N1789    N        0.33403    0.25785    0.56939    1.000
    N1790    N        0.28472    0.16514    0.60480    1.000
    Si1791   Si       0.34254    0.22117    0.54555    1.000
    Si1792   Si       0.30702    0.02232    0.62491    1.000
    N1793    N        0.30353    0.03283    0.66774    1.000
    N1794    N        0.32567    0.09050    0.69417    1.000
    Si1795   Si       0.29468    0.05565    0.70238    1.000
    Si1796   Si       0.30923    0.12504    0.67452    1.000
    N1797    N        0.28963    0.10782    0.63923    1.000
    Si1798   Si       0.30990    0.20419    0.66533    1.000
    N1799    N        0.32680    0.21244    0.62704    1.000
    N1800    N        0.32531    0.23436    0.69306    1.000
    N1801    N        0.32898    0.16256    0.67059    1.000
    Si1802   Si       0.30398    0.09043    0.77651    1.000
    Si1803   Si       0.32600    0.03458    0.76078    1.000
    Si1804   Si       0.29478    0.05604    0.84385    1.000
    N1805    N        0.33974    0.05070    0.83866    1.000
    N1806    N        0.33490    0.11748    0.86803    1.000
    N1807    N        0.31041    0.13217    0.76260    1.000
    N1808    N        0.29001    0.05691    0.75103    1.000
    N1809    N        0.28289    0.08902    0.81615    1.000
    Si1810   Si       0.33606    0.15871    0.85657    1.000
    Si1811   Si       0.29387    0.20983    0.82289    1.000
    N1812    N        0.31076    0.24707    0.83937    1.000
    N1813    N        0.32294    0.17667    0.81773    1.000
    N1814    N        0.31075    0.25548    0.75692    1.000
    Si1815   Si       0.34114    0.15743    0.78270    1.000
    Si1816   Si       0.30250    0.04701    0.92855    1.000
    Si1817   Si       0.30155    0.11367    0.89307    1.000
    N1818    N        0.29787    0.06967    0.88740    1.000
    Si1819   Si       0.31950    0.07083    0.98949    1.000
    N1820    N        0.30125    0.12695    0.93331    1.000
    N1821    N        0.33742    0.02710    0.94550    1.000
    N1822    N        0.28301    0.06126    0.96617    1.000
    Si1823   Si       0.33936    0.13468    0.95292    1.000
    Si1824   Si       0.28496    0.18823    0.89195    1.000
    N1825    N        0.28491    0.23502    0.90938    1.000
    Si1826   Si       0.31111    0.24489    0.94399    1.000
    N1827    N        0.30464    0.21973    0.97776    1.000
    N1828    N        0.32986    0.15845    0.98893    1.000
    N1829    N        0.32736    0.18760    0.88619    1.000
    Si1830   Si       0.33999    0.20004    0.99391    1.000
    N1831    N        0.33430    0.27971    0.05769    1.000
    N1832    N        0.33722    0.34510    0.10064    1.000
    N1833    N        0.30977    0.33660    0.00236    1.000
    Si1834   Si       0.29538    0.25969    0.05728    1.000
    Si1835   Si       0.30183    0.43312    0.08758    1.000
    N1836    N        0.31432    0.44400    0.04545    1.000
    Si1837   Si       0.30340    0.41686    0.01295    1.000
    N1838    N        0.28903    0.46821    0.11144    1.000
    N1839    N        0.33751    0.41681    0.10644    1.000
    N1840    N        0.34142    0.39761    0.00326    1.000
    Si1841   Si       0.30992    0.50561    0.10989    1.000
    N1842    N        0.32352    0.28925    0.12490    1.000
    N1843    N        0.30583    0.32784    0.24076    1.000
    Si1844   Si       0.30319    0.33278    0.12704    1.000
    N1845    N        0.31679    0.34097    0.16688    1.000
    N1846    N        0.33195    0.28146    0.19700    1.000
    Si1847   Si       0.30398    0.31415    0.20003    1.000
    Si1848   Si       0.30104    0.48211    0.21447    1.000
    Si1849   Si       0.29321    0.41616    0.18740    1.000
    N1850    N        0.29680    0.39775    0.22723    1.000
    N1851    N        0.33643    0.41243    0.18062    1.000
    Si1852   Si       0.34126    0.39328    0.21945    1.000
    N1853    N        0.34047    0.48340    0.19939    1.000
    Si1854   Si       0.30752    0.30246    0.27962    1.000
    N1855    N        0.32132    0.31888    0.31968    1.000
    Si1856   Si       0.29576    0.32600    0.35636    1.000
    N1857    N        0.33160    0.26737    0.26933    1.000
    N1858    N        0.32537    0.47673    0.31796    1.000
    Si1859   Si       0.30783    0.42435    0.26111    1.000
    Si1860   Si       0.32715    0.49507    0.27936    1.000
    N1861    N        0.30545    0.46798    0.25499    1.000
    Si1862   Si       0.29030    0.45401    0.32705    1.000
    N1863    N        0.29378    0.43433    0.36781    1.000
    N1864    N        0.28894    0.42216    0.29952    1.000
    Si1865   Si       0.33098    0.35734    0.47776    1.000
    N1866    N        0.32236    0.31411    0.47629    1.000
    N1867    N        0.30488    0.32772    0.39889    1.000
    N1868    N        0.29576    0.38341    0.48334    1.000
    N1869    N        0.30462    0.43679    0.43323    1.000
    Si1870   Si       0.32583    0.45648    0.46757    1.000
    Si1871   Si       0.32655    0.44453    0.39458    1.000
    N1872    N        0.34148    0.49575    0.45521    1.000
    Si1873   Si       0.31427    0.29469    0.58506    1.000
    N1874    N        0.32789    0.33470    0.58220    1.000
    Si1875   Si       0.34056    0.36716    0.55493    1.000
    Si1876   Si       0.32627    0.35424    0.62084    1.000
    N1877    N        0.30585    0.39659    0.55125    1.000
    Si1878   Si       0.31270    0.43823    0.54228    1.000
    N1879    N        0.29852    0.45371    0.50170    1.000
    N1880    N        0.30569    0.39262    0.61756    1.000
    N1881    N        0.29402    0.50641    0.61331    1.000
    N1882    N        0.32765    0.28272    0.62611    1.000
    Si1883   Si       0.30222    0.29454    0.65783    1.000
    N1884    N        0.31028    0.29966    0.70124    1.000
    N1885    N        0.29965    0.33682    0.65037    1.000
    N1886    N        0.30350    0.36507    0.72484    1.000
    Si1887   Si       0.33321    0.32806    0.72239    1.000
    Si1888   Si       0.30077    0.26015    0.71487    1.000
    Si1889   Si       0.28643    0.48768    0.65394    1.000
    Si1890   Si       0.29532    0.41095    0.65440    1.000
    Si1891   Si       0.30300    0.40929    0.72687    1.000
    N1892    N        0.32169    0.41987    0.68640    1.000
    N1893    N        0.32171    0.48764    0.67666    1.000
    Si1894   Si       0.29735    0.34892    0.76984    1.000
    N1895    N        0.29602    0.37192    0.80708    1.000
    N1896    N        0.33063    0.36743    0.86553    1.000
    N1897    N        0.33389    0.32696    0.76492    1.000
    Si1898   Si       0.34008    0.32508    0.86895    1.000
    Si1899   Si       0.33347    0.38499    0.82686    1.000
    N1900    N        0.32910    0.49355    0.79244    1.000
    Si1901   Si       0.31826    0.45326    0.79752    1.000
    N1902    N        0.32607    0.43123    0.75820    1.000
    Si1903   Si       0.28903    0.26210    0.87584    1.000
    Si1904   Si       0.33246    0.36249    0.97379    1.000
    N1905    N        0.31166    0.35936    0.93210    1.000
    N1906    N        0.30861    0.30187    0.88568    1.000
    N1907    N        0.30037    0.28726    0.95275    1.000
    Si1908   Si       0.29487    0.31960    0.92376    1.000
    Si1909   Si       0.31001    0.29355    0.99486    1.000
    Si1910   Si       0.30063    0.44741    0.94547    1.000
    Si1911   Si       0.31067    0.38872    0.89759    1.000
    N1912    N        0.32662    0.42138    0.92216    1.000
    N1913    N        0.30467    0.48634    0.96660    1.000
    N1914    N        0.32592    0.56352    0.05046    1.000
    N1915    N        0.33159    0.63066    0.02182    1.000
    N1916    N        0.28551    0.60875    0.10463    1.000
    N1917    N        0.33936    0.69727    0.00552    1.000
    Si1918   Si       0.29588    0.65147    0.10566    1.000
    N1919    N        0.30693    0.67749    0.07078    1.000
    N1920    N        0.31848    0.74303    0.05138    1.000
    Si1921   Si       0.31346    0.73246    0.00739    1.000
    Si1922   Si       0.29837    0.71973    0.07973    1.000
    Si1923   Si       0.33840    0.67001    0.04107    1.000
    N1924    N        0.30192    0.73765    0.11967    1.000
    Si1925   Si       0.28669    0.53781    0.17226    1.000
    Si1926   Si       0.31433    0.60040    0.13686    1.000
    N1927    N        0.31956    0.52397    0.14748    1.000
    N1928    N        0.28602    0.58257    0.17013    1.000
    N1929    N        0.28603    0.52272    0.21373    1.000
    N1930    N        0.29213    0.58169    0.24144    1.000
    Si1931   Si       0.30261    0.71920    0.21039    1.000
    N1932    N        0.33945    0.73282    0.22990    1.000
    Si1933   Si       0.33761    0.66816    0.16845    1.000
    N1934    N        0.32798    0.64142    0.13715    1.000
    N1935    N        0.29078    0.69150    0.24019    1.000
    N1936    N        0.31085    0.70191    0.17204    1.000
    Si1937   Si       0.34108    0.75054    0.13340    1.000
    N1938    N        0.33129    0.64635    0.20503    1.000
    Si1939   Si       0.29799    0.64972    0.23323    1.000
    Si1940   Si       0.30980    0.54632    0.32338    1.000
    N1941    N        0.31605    0.58883    0.31317    1.000
    Si1942   Si       0.32223    0.59292    0.27118    1.000
    N1943    N        0.30202    0.53022    0.28172    1.000
    Si1944   Si       0.33835    0.61527    0.34150    1.000
    N1945    N        0.34862    0.53342    0.34047    1.000
    N1946    N        0.31952    0.63784    0.26839    1.000
    N1947    N        0.30537    0.64356    0.35821    1.000
    Si1948   Si       0.30811    0.68723    0.34893    1.000
    N1949    N        0.30996    0.69311    0.30513    1.000
    N1950    N        0.34268    0.71055    0.36416    1.000
    Si1951   Si       0.34181    0.66842    0.28794    1.000
    Si1952   Si       0.34267    0.74885    0.34364    1.000
    N1953    N        0.29919    0.75790    0.33698    1.000
    N1954    N        0.31353    0.62647    0.42687    1.000
    Si1955   Si       0.31913    0.52532    0.47771    1.000
    Si1956   Si       0.29684    0.61301    0.38759    1.000
    N1957    N        0.33040    0.58680    0.37769    1.000
    Si1958   Si       0.29749    0.59569    0.48385    1.000
    N1959    N        0.31716    0.56501    0.45770    1.000
    Si1960   Si       0.33929    0.57491    0.42147    1.000
    Si1961   Si       0.29118    0.73245    0.43889    1.000
    N1962    N        0.31457    0.69614    0.43304    1.000
    N1963    N        0.30568    0.74810    0.47731    1.000
    Si1964   Si       0.29130    0.65827    0.44628    1.000
    N1965    N        0.29986    0.75985    0.40645    1.000
    Si1966   Si       0.32594    0.56351    0.53888    1.000
    N1967    N        0.33154    0.59742    0.51225    1.000
    N1968    N        0.29232    0.55532    0.56616    1.000
    Si1969   Si       0.29190    0.55030    0.60893    1.000
    N1970    N        0.33560    0.52576    0.52086    1.000
    N1971    N        0.31268    0.63103    0.57352    1.000
    Si1972   Si       0.34068    0.60367    0.59284    1.000
    Si1973   Si       0.30647    0.72723    0.51619    1.000
    N1974    N        0.32450    0.68913    0.53119    1.000
    Si1975   Si       0.32572    0.67395    0.57170    1.000
    N1976    N        0.33178    0.75641    0.53619    1.000
    N1977    N        0.32049    0.57983    0.62440    1.000
    Si1978   Si       0.29478    0.57120    0.72560    1.000
    Si1979   Si       0.33186    0.59222    0.66437    1.000
    N1980    N        0.31895    0.55978    0.69059    1.000
    N1981    N        0.30825    0.62992    0.67092    1.000
    N1982    N        0.30623    0.69107    0.70690    1.000
    N1983    N        0.29047    0.73476    0.65057    1.000
    Si1984   Si       0.33356    0.66425    0.68613    1.000
    Si1985   Si       0.29544    0.69212    0.74852    1.000
    Si1986   Si       0.29708    0.58200    0.78918    1.000
    N1987    N        0.31436    0.55075    0.76139    1.000
    N1988    N        0.33663    0.60218    0.79855    1.000
    Si1989   Si       0.29446    0.51540    0.77864    1.000
    Si1990   Si       0.33463    0.62362    0.75557    1.000
    N1991    N        0.29456    0.58521    0.86739    1.000
    N1992    N        0.29205    0.60824    0.74783    1.000
    Si1993   Si       0.32718    0.67636    0.80926    1.000
    N1994    N        0.31602    0.66065    0.77164    1.000
    N1995    N        0.31135    0.72891    0.76171    1.000
    N1996    N        0.29487    0.69848    0.82681    1.000
    N1997    N        0.34372    0.65343    0.84187    1.000
    N1998    N        0.33515    0.53717    0.87267    1.000
    Si1999   Si       0.33752    0.58178    0.87645    1.000
    Si2000   Si       0.29239    0.54322    0.87986    1.000
    N2001    N        0.29929    0.59946    0.97111    1.000
    Si2002   Si       0.31759    0.57130    0.94472    1.000
    N2003    N        0.29123    0.54038    0.92368    1.000
    N2004    N        0.33936    0.54481    0.96806    1.000
    Si2005   Si       0.31664    0.51630    0.99406    1.000
    N2006    N        0.34009    0.59653    0.91741    1.000
    Si2007   Si       0.32296    0.63704    0.98065    1.000
    N2008    N        0.32096    0.73341    0.93801    1.000
    N2009    N        0.30883    0.68543    0.89263    1.000
    N2010    N        0.29229    0.66091    0.96047    1.000
    Si2011   Si       0.29690    0.69616    0.93328    1.000
    Si2012   Si       0.33431    0.85209    0.05989    1.000
    N2013    N        0.33573    0.85088    0.10300    1.000
    N2014    N        0.29862    0.87719    0.05179    1.000
    Si2015   Si       0.33548    0.80994    0.00428    1.000
    N2016    N        0.33294    0.81110    0.04705    1.000
    Si2017   Si       0.30130    0.87954    0.00772    1.000
    Si2018   Si       0.31010    0.95577    0.02403    1.000
    N2019    N        0.30338    0.98678    0.10165    1.000
    N2020    N        0.32241    0.91880    0.00152    1.000
    N2021    N        0.33209    0.82728    0.15984    1.000
    Si2022   Si       0.31544    0.85856    0.19675    1.000
    Si2023   Si       0.30182    0.84370    0.13072    1.000
    N2024    N        0.30070    0.81603    0.21185    1.000
    Si2025   Si       0.30764    0.79191    0.17606    1.000
    N2026    N        0.29324    0.87582    0.16210    1.000
    N2027    N        0.29745    0.87962    0.23143    1.000
    N2028    N        0.34018    0.76643    0.17252    1.000
    N2029    N        0.30325    0.94826    0.15688    1.000
    Si2030   Si       0.33007    0.97151    0.13371    1.000
    N2031    N        0.30274    0.77536    0.27069    1.000
    Si2032   Si       0.29687    0.85708    0.34390    1.000
    N2033    N        0.29091    0.84665    0.30028    1.000
    Si2034   Si       0.30909    0.87593    0.27301    1.000
    N2035    N        0.31382    0.82615    0.36990    1.000
    N2036    N        0.31564    0.89621    0.34914    1.000
    Si2037   Si       0.29798    0.94715    0.30914    1.000
    N2038    N        0.28852    0.91431    0.28323    1.000
    N2039    N        0.28805    0.98126    0.28525    1.000
    N2040    N        0.33849    0.95493    0.32354    1.000
    Si2041   Si       0.30694    0.98225    0.24560    1.000
    Si2042   Si       0.30263    0.84916    0.47273    1.000
    Si2043   Si       0.32659    0.78602    0.47788    1.000
    N2044    N        0.31958    0.81357    0.44325    1.000
    Si2045   Si       0.29761    0.80449    0.40584    1.000
    N2046    N        0.32581    0.87509    0.44228    1.000
    N2047    N        0.28984    0.92674    0.40836    1.000
    N2048    N        0.29063    0.98444    0.44830    1.000
    Si2049   Si       0.32979    0.97624    0.46674    1.000
    Si2050   Si       0.32943    0.91460    0.42370    1.000
    N2051    N        0.31558    0.81389    0.57461    1.000
    Si2052   Si       0.32181    0.77017    0.57609    1.000
    N2053    N        0.32136    0.87563    0.60359    1.000
    Si2054   Si       0.33426    0.83279    0.60719    1.000
    Si2055   Si       0.28969    0.82471    0.54048    1.000
    N2056    N        0.31201    0.81875    0.50399    1.000
    N2057    N        0.29969    0.88259    0.50235    1.000
    N2058    N        0.34244    0.00016    0.50097    1.000
    Si2059   Si       0.32654    0.98339    0.53694    1.000
    N2060    N        0.30677    0.94930    0.51822    1.000
    Si2061   Si       0.32963    0.91527    0.50366    1.000
    N2062    N        0.28438    0.99046    0.60707    1.000
    N2063    N        0.33321    0.80400    0.64399    1.000
    Si2064   Si       0.31476    0.76785    0.66686    1.000
    N2065    N        0.30430    0.78729    0.70386    1.000
    Si2066   Si       0.31404    0.82361    0.72723    1.000
    Si2067   Si       0.29330    0.76564    0.74181    1.000
    Si2068   Si       0.33876    0.00673    0.67981    1.000
    N2069    N        0.31611    0.96921    0.68295    1.000
    N2070    N        0.30423    0.90077    0.69353    1.000
    Si2071   Si       0.28370    0.94052    0.68348    1.000
    Si2072   Si       0.31912    0.85531    0.82817    1.000
    Si2073   Si       0.32800    0.78915    0.83493    1.000
    N2074    N        0.32168    0.79728    0.76089    1.000
    N2075    N        0.28794    0.77257    0.82321    1.000
    N2076    N        0.34402    0.78679    0.87464    1.000
    N2077    N        0.32674    0.89431    0.81532    1.000
    Si2078   Si       0.30173    0.92149    0.78926    1.000
    N2079    N        0.30759    0.00236    0.78481    1.000
    N2080    N        0.33639    0.93804    0.76810    1.000
    N2081    N        0.32033    0.85011    0.87230    1.000
    N2082    N        0.29566    0.79983    0.91952    1.000
    Si2083   Si       0.29944    0.77093    0.95075    1.000
    Si2084   Si       0.33041    0.81672    0.90038    1.000
    N2085    N        0.32769    0.85148    0.98952    1.000
    N2086    N        0.31704    0.77297    0.99148    1.000
    Si2087   Si       0.33407    0.86944    0.95082    1.000
    N2088    N        0.29651    0.87717    0.92902    1.000
    Si2089   Si       0.30679    0.88934    0.88719    1.000
    Si2090   Si       0.28257    0.97922    0.95107    1.000
    Si2091   Si       0.32398    0.96132    0.89355    1.000
    N2092    N        0.30161    0.98612    0.99255    1.000
    N2093    N        0.31492    0.95471    0.93584    1.000
    N2094    N        0.33550    0.92087    0.87899    1.000
    Si2095   Si       0.33663    0.00814    0.98332    1.000
    N2096    N        0.28324    0.96676    0.87582    1.000
    Si2097   Si       0.36083    0.04666    0.04989    1.000
    Si2098   Si       0.36293    0.09525    0.10274    1.000
    N2099    N        0.39324    0.11997    0.08468    1.000
    N2100    N        0.36614    0.01064    0.07302    1.000
    N2101    N        0.34147    0.04097    0.01154    1.000
    N2102    N        0.34805    0.17260    0.08940    1.000
    Si2103   Si       0.39164    0.16480    0.08359    1.000
    Si2104   Si       0.35796    0.25518    0.03295    1.000
    N2105    N        0.40132    0.24812    0.03924    1.000
    Si2106   Si       0.36779    0.03376    0.16314    1.000
    N2107    N        0.38015    0.10522    0.18587    1.000
    N2108    N        0.37951    0.06438    0.13219    1.000
    Si2109   Si       0.38953    0.12632    0.22229    1.000
    N2110    N        0.35950    0.15810    0.22950    1.000
    Si2111   Si       0.39212    0.20727    0.14625    1.000
    N2112    N        0.37444    0.24730    0.15234    1.000
    N2113    N        0.35224    0.22142    0.21759    1.000
    N2114    N        0.35850    0.18157    0.15561    1.000
    Si2115   Si       0.38600    0.24145    0.19712    1.000
    N2116    N        0.38259    0.08370    0.32095    1.000
    Si2117   Si       0.37670    0.11529    0.29297    1.000
    Si2118   Si       0.35871    0.04904    0.33201    1.000
    N2119    N        0.39481    0.10067    0.25529    1.000
    N2120    N        0.37017    0.02469    0.36833    1.000
    N2121    N        0.34446    0.02345    0.30125    1.000
    N2122    N        0.39732    0.15356    0.30009    1.000
    N2123    N        0.36049    0.24083    0.33536    1.000
    N2124    N        0.36603    0.17821    0.36234    1.000
    Si2125   Si       0.36748    0.19620    0.25026    1.000
    Si2126   Si       0.36912    0.10102    0.43337    1.000
    N2127    N        0.38313    0.06139    0.42493    1.000
    Si2128   Si       0.35700    0.02799    0.41125    1.000
    N2129    N        0.38324    0.12424    0.46648    1.000
    N2130    N        0.38042    0.12273    0.39553    1.000
    Si2131   Si       0.35249    0.21708    0.37215    1.000
    Si2132   Si       0.35092    0.15456    0.46597    1.000
    N2133    N        0.37396    0.19417    0.47483    1.000
    N2134    N        0.37967    0.22987    0.40435    1.000
    Si2135   Si       0.34990    0.15309    0.39198    1.000
    Si2136   Si       0.35876    0.21611    0.44061    1.000
    N2137    N        0.38590    0.10594    0.53715    1.000
    Si2138   Si       0.34365    0.11356    0.53098    1.000
    N2139    N        0.38598    0.21966    0.54395    1.000
    N2140    N        0.38963    0.24290    0.60771    1.000
    Si2141   Si       0.34691    0.24669    0.60987    1.000
    N2142    N        0.36512    0.15598    0.61323    1.000
    N2143    N        0.35924    0.08738    0.61753    1.000
    Si2144   Si       0.38788    0.12005    0.62147    1.000
    N2145    N        0.34138    0.03256    0.71834    1.000
    Si2146   Si       0.37329    0.04595    0.62495    1.000
    Si2147   Si       0.36344    0.06809    0.70198    1.000
    N2148    N        0.38674    0.05124    0.66784    1.000
    N2149    N        0.38809    0.09625    0.72618    1.000
    N2150    N        0.39349    0.13073    0.66496    1.000
    N2151    N        0.34792    0.00978    0.63110    1.000
    Si2152   Si       0.36945    0.23562    0.69344    1.000
    N2153    N        0.38662    0.20443    0.66859    1.000
    N2154    N        0.37774    0.25423    0.73200    1.000
    Si2155   Si       0.36979    0.16699    0.65761    1.000
    Si2156   Si       0.37161    0.04292    0.80803    1.000
    Si2157   Si       0.38096    0.09567    0.77041    1.000
    Si2158   Si       0.35740    0.07980    0.86700    1.000
    N2159    N        0.34463    0.07277    0.77967    1.000
    N2160    N        0.39540    0.09079    0.84700    1.000
    N2161    N        0.36465    0.01418    0.77588    1.000
    N2162    N        0.39925    0.02298    0.84054    1.000
    Si2163   Si       0.39914    0.13119    0.82953    1.000
    N2164    N        0.37487    0.13140    0.79514    1.000
    N2165    N        0.35126    0.19254    0.75815    1.000
    N2166    N        0.37084    0.24395    0.79862    1.000
    N2167    N        0.38056    0.15995    0.85783    1.000
    N2168    N        0.37077    0.25010    0.86638    1.000
    Si2169   Si       0.34991    0.23613    0.76152    1.000
    Si2170   Si       0.38302    0.09166    0.93893    1.000
    Si2171   Si       0.36750    0.02413    0.91602    1.000
    N2172    N        0.37107    0.06684    0.90530    1.000
    N2173    N        0.34896    0.09288    0.96709    1.000
    N2174    N        0.38061    0.20922    0.98475    1.000
    N2175    N        0.37711    0.13419    0.92773    1.000
    N2176    N        0.39475    0.19991    0.91296    1.000
    Si2177   Si       0.35843    0.21837    0.89478    1.000
    Si2178   Si       0.39226    0.22717    0.94881    1.000
    N2179    N        0.35161    0.24101    0.93219    1.000
    Si2180   Si       0.39655    0.15991    0.89982    1.000
    N2181    N        0.38945    0.30169    0.08460    1.000
    Si2182   Si       0.36254    0.38241    0.09848    1.000
    Si2183   Si       0.34609    0.30345    0.09050    1.000
    N2184    N        0.38816    0.38208    0.06461    1.000
    Si2185   Si       0.37837    0.40361    0.02634    1.000
    N2186    N        0.38231    0.44452    0.03982    1.000
    Si2187   Si       0.34779    0.46909    0.04595    1.000
    N2188    N        0.34663    0.49617    0.08245    1.000
    Si2189   Si       0.38355    0.50517    0.10502    1.000
    N2190    N        0.35260    0.50576    0.01855    1.000
    Si2191   Si       0.35158    0.28344    0.15807    1.000
    N2192    N        0.37744    0.31687    0.15879    1.000
    Si2193   Si       0.35759    0.35485    0.16870    1.000
    N2194    N        0.36829    0.36376    0.21031    1.000
    N2195    N        0.37987    0.38427    0.14217    1.000
    Si2196   Si       0.37012    0.50649    0.22044    1.000
    Si2197   Si       0.35764    0.42499    0.14516    1.000
    N2198    N        0.38095    0.46043    0.14060    1.000
    Si2199   Si       0.35927    0.33467    0.33011    1.000
    N2200    N        0.38099    0.35422    0.29885    1.000
    N2201    N        0.38776    0.30272    0.33453    1.000
    N2202    N        0.35901    0.35826    0.36708    1.000
    Si2203   Si       0.39723    0.26067    0.32742    1.000
    Si2204   Si       0.38525    0.39442    0.36413    1.000
    Si2205   Si       0.38311    0.39436    0.28531    1.000
    Si2206   Si       0.35607    0.49144    0.34469    1.000
    N2207    N        0.39467    0.48105    0.32535    1.000
    N2208    N        0.34921    0.40731    0.26149    1.000
    N2209    N        0.39069    0.41197    0.32393    1.000
    N2210    N        0.36673    0.50322    0.26373    1.000
    Si2211   Si       0.40087    0.50653    0.28954    1.000
    Si2212   Si       0.34662    0.34063    0.40541    1.000
    N2213    N        0.35122    0.36834    0.44132    1.000
    N2214    N        0.39221    0.28581    0.47741    1.000
    N2215    N        0.36861    0.30722    0.42265    1.000
    Si2216   Si       0.35070    0.28719    0.45790    1.000
    Si2217   Si       0.37252    0.40524    0.43731    1.000
    Si2218   Si       0.36550    0.49928    0.42071    1.000
    N2219    N        0.36506    0.43581    0.46854    1.000
    Si2220   Si       0.39638    0.45248    0.49410    1.000
    N2221    N        0.34962    0.48052    0.38635    1.000
    N2222    N        0.36214    0.41801    0.39430    1.000
    Si2223   Si       0.39715    0.36608    0.60328    1.000
    N2224    N        0.35290    0.36172    0.51352    1.000
    N2225    N        0.37135    0.38926    0.57608    1.000
    Si2226   Si       0.36178    0.49666    0.54211    1.000
    Si2227   Si       0.38297    0.42622    0.55644    1.000
    Si2228   Si       0.38856    0.48145    0.61119    1.000
    N2229    N        0.35194    0.45430    0.54779    1.000
    N2230    N        0.39497    0.48990    0.51517    1.000
    N2231    N        0.37347    0.51046    0.58337    1.000
    N2232    N        0.37206    0.32659    0.70716    1.000
    N2233    N        0.36799    0.35347    0.63483    1.000
    Si2234   Si       0.38860    0.34940    0.67235    1.000
    Si2235   Si       0.39432    0.28926    0.71133    1.000
    N2236    N        0.39028    0.26675    0.67220    1.000
    N2237    N        0.37246    0.44899    0.64016    1.000
    Si2238   Si       0.39411    0.49244    0.73200    1.000
    N2239    N        0.37289    0.45837    0.71246    1.000
    Si2240   Si       0.34871    0.45396    0.67646    1.000
    N2241    N        0.39063    0.39129    0.68555    1.000
    Si2242   Si       0.36432    0.32587    0.79628    1.000
    N2243    N        0.36871    0.37079    0.80454    1.000
    N2244    N        0.34741    0.30701    0.83163    1.000
    Si2245   Si       0.34800    0.26400    0.82951    1.000
    Si2246   Si       0.37286    0.49548    0.79969    1.000
    Si2247   Si       0.38059    0.43850    0.83922    1.000
    N2248    N        0.38046    0.48268    0.83994    1.000
    N2249    N        0.39153    0.46855    0.77046    1.000
    N2250    N        0.39418    0.40370    0.75235    1.000
    Si2251   Si       0.36730    0.43800    0.74974    1.000
    N2252    N        0.34112    0.42876    0.82512    1.000
    Si2253   Si       0.39617    0.33362    0.93055    1.000
    N2254    N        0.37693    0.33629    0.89174    1.000
    N2255    N        0.36726    0.33992    0.96474    1.000
    Si2256   Si       0.38103    0.30239    0.98090    1.000
    Si2257   Si       0.39902    0.37569    0.88361    1.000
    N2258    N        0.40231    0.29166    0.94574    1.000
    N2259    N        0.35145    0.27767    0.99744    1.000
    Si2260   Si       0.39950    0.47893    0.93969    1.000
    N2261    N        0.38744    0.43737    0.94923    1.000
    Si2262   Si       0.36497    0.43725    0.91244    1.000
    N2263    N        0.36669    0.48071    0.90867    1.000
    N2264    N        0.38337    0.41745    0.87665    1.000
    Si2265   Si       0.36758    0.50780    0.87402    1.000
    N2266    N        0.36970    0.61386    0.07547    1.000
    Si2267   Si       0.37970    0.58602    0.10604    1.000
    N2268    N        0.38537    0.54642    0.08516    1.000
    N2269    N        0.38078    0.56731    0.02082    1.000
    Si2270   Si       0.35624    0.53332    0.05222    1.000
    Si2271   Si       0.35124    0.59718    0.03872    1.000
    N2272    N        0.37593    0.67939    0.06134    1.000
    Si2273   Si       0.39851    0.71482    0.04300    1.000
    N2274    N        0.38291    0.75564    0.04630    1.000
    Si2275   Si       0.40045    0.64222    0.06444    1.000
    Si2276   Si       0.38459    0.57754    0.22901    1.000
    N2277    N        0.35170    0.57966    0.13834    1.000
    N2278    N        0.36511    0.54801    0.20538    1.000
    Si2279   Si       0.35651    0.54363    0.16253    1.000
    N2280    N        0.39461    0.61950    0.22271    1.000
    N2281    N        0.39470    0.52437    0.14567    1.000
    N2282    N        0.37623    0.72527    0.13207    1.000
    N2283    N        0.37966    0.67668    0.18293    1.000
    Si2284   Si       0.39987    0.71014    0.16725    1.000
    Si2285   Si       0.37243    0.65448    0.21980    1.000
    Si2286   Si       0.36674    0.75667    0.20547    1.000
    N2287    N        0.38108    0.59424    0.33606    1.000
    N2288    N        0.36346    0.57735    0.26837    1.000
    Si2289   Si       0.39615    0.58029    0.29802    1.000
    Si2290   Si       0.37127    0.56196    0.36534    1.000
    N2291    N        0.36094    0.64971    0.32267    1.000
    N2292    N        0.37559    0.67424    0.26031    1.000
    N2293    N        0.35866    0.74992    0.30137    1.000
    Si2294   Si       0.40354    0.63789    0.32605    1.000
    N2295    N        0.37473    0.60083    0.43427    1.000
    N2296    N        0.36513    0.54197    0.40802    1.000
    N2297    N        0.37739    0.71749    0.49605    1.000
    N2298    N        0.37175    0.66480    0.40824    1.000
    N2299    N        0.37540    0.73613    0.41691    1.000
    N2300    N        0.35857    0.65201    0.47829    1.000
    Si2301   Si       0.34883    0.70346    0.40805    1.000
    Si2302   Si       0.39950    0.74928    0.37972    1.000
    Si2303   Si       0.35320    0.63882    0.43820    1.000
    Si2304   Si       0.38849    0.73906    0.45865    1.000
    N2305    N        0.35850    0.57461    0.56747    1.000
    Si2306   Si       0.36690    0.62097    0.50792    1.000
    Si2307   Si       0.39302    0.54835    0.57700    1.000
    N2308    N        0.37117    0.62474    0.61455    1.000
    N2309    N        0.40271    0.59618    0.49641    1.000
    N2310    N        0.38236    0.65223    0.53501    1.000
    Si2311   Si       0.38140    0.72610    0.59474    1.000
    N2312    N        0.35770    0.68875    0.59457    1.000
    Si2313   Si       0.36157    0.68201    0.51056    1.000
    Si2314   Si       0.37296    0.75393    0.52546    1.000
    Si2315   Si       0.38199    0.66641    0.62424    1.000
    N2316    N        0.39859    0.72999    0.55598    1.000
    N2317    N        0.37197    0.52563    0.65559    1.000
    N2318    N        0.36617    0.52360    0.72507    1.000
    Si2319   Si       0.38326    0.61623    0.71000    1.000
    N2320    N        0.37362    0.59759    0.67259    1.000
    Si2321   Si       0.39981    0.60348    0.63887    1.000
    Si2322   Si       0.34343    0.52420    0.68793    1.000
    N2323    N        0.36557    0.59111    0.74186    1.000
    Si2324   Si       0.38629    0.71786    0.67232    1.000
    N2325    N        0.35701    0.75005    0.67210    1.000
    N2326    N        0.35315    0.64771    0.72168    1.000
    N2327    N        0.36804    0.67883    0.66323    1.000
    N2328    N        0.38552    0.53440    0.78701    1.000
    N2329    N        0.37610    0.59129    0.85858    1.000
    Si2330   Si       0.36467    0.62069    0.82709    1.000
    Si2331   Si       0.35741    0.55110    0.75752    1.000
    Si2332   Si       0.37575    0.75986    0.86106    1.000
    N2333    N        0.36328    0.69714    0.79802    1.000
    Si2334   Si       0.34924    0.73556    0.78349    1.000
    N2335    N        0.37961    0.75575    0.75919    1.000
    N2336    N        0.39981    0.63760    0.80786    1.000
    Si2337   Si       0.37267    0.62445    0.92534    1.000
    Si2338   Si       0.37651    0.53578    0.99089    1.000
    Si2339   Si       0.40179    0.69353    0.90749    1.000
    Si2340   Si       0.34694    0.67956    0.87711    1.000
    N2341    N        0.37754    0.65970    0.89937    1.000
    Si2342   Si       0.37294    0.68521    0.97950    1.000
    N2343    N        0.36276    0.64642    0.96194    1.000
    N2344    N        0.37104    0.72171    0.88359    1.000
    Si2345   Si       0.36059    0.73754    0.92379    1.000
    N2346    N        0.39034    0.70823    0.94691    1.000
    N2347    N        0.35006    0.78176    0.10677    1.000
    N2348    N        0.39769    0.82929    0.09082    1.000
    N2349    N        0.36604    0.88026    0.04895    1.000
    Si2350   Si       0.34817    0.77438    0.06362    1.000
    Si2351   Si       0.36181    0.91466    0.02498    1.000
    N2352    N        0.35842    0.94695    0.11251    1.000
    Si2353   Si       0.37089    0.96956    0.07602    1.000
    N2354    N        0.34855    0.95126    0.04536    1.000
    Si2355   Si       0.39944    0.93519    0.11749    1.000
    N2356    N        0.39899    0.92275    0.00671    1.000
    Si2357   Si       0.36409    0.82196    0.12359    1.000
    Si2358   Si       0.38922    0.84510    0.18519    1.000
    N2359    N        0.35764    0.86869    0.20255    1.000
    N2360    N        0.39671    0.81674    0.15406    1.000
    N2361    N        0.37363    0.78169    0.23980    1.000
    Si2362   Si       0.38700    0.95713    0.24666    1.000
    N2363    N        0.36010    0.99316    0.16039    1.000
    N2364    N        0.36740    0.93536    0.21019    1.000
    Si2365   Si       0.38513    0.96492    0.18288    1.000
    Si2366   Si       0.37147    0.89523    0.23418    1.000
    N2367    N        0.37107    0.83862    0.32717    1.000
    Si2368   Si       0.37927    0.87348    0.30042    1.000
    Si2369   Si       0.35638    0.81918    0.36467    1.000
    N2370    N        0.36756    0.77786    0.36496    1.000
    N2371    N        0.35119    0.87943    0.26812    1.000
    Si2372   Si       0.34114    0.76114    0.26367    1.000
    N2373    N        0.38509    0.90839    0.32666    1.000
    Si2374   Si       0.35836    0.98258    0.29845    1.000
    Si2375   Si       0.35069    0.92163    0.34808    1.000
    N2376    N        0.34675    0.97505    0.25720    1.000
    Si2377   Si       0.35415    0.84358    0.43952    1.000
    N2378    N        0.36897    0.77558    0.47850    1.000
    N2379    N        0.37388    0.83923    0.40119    1.000
    N2380    N        0.37896    0.84174    0.47443    1.000
    Si2381   Si       0.39547    0.80589    0.49450    1.000
    Si2382   Si       0.39796    0.87274    0.49765    1.000
    N2383    N        0.36032    0.91905    0.39217    1.000
    N2384    N        0.36314    0.99670    0.44313    1.000
    Si2385   Si       0.38751    0.94035    0.45754    1.000
    Si2386   Si       0.38214    0.00288    0.48209    1.000
    N2387    N        0.40275    0.96706    0.48902    1.000
    N2388    N        0.34378    0.93584    0.46018    1.000
    N2389    N        0.37667    0.82626    0.60195    1.000
    N2390    N        0.38906    0.79380    0.53544    1.000
    N2391    N        0.35604    0.75908    0.60245    1.000
    Si2392   Si       0.36399    0.97548    0.60900    1.000
    N2393    N        0.36560    0.90080    0.51998    1.000
    N2394    N        0.38901    0.90599    0.59460    1.000
    Si2395   Si       0.39506    0.89614    0.55346    1.000
    N2396    N        0.34991    0.97555    0.57022    1.000
    Si2397   Si       0.35523    0.89815    0.62111    1.000
    N2398    N        0.34483    0.85311    0.72202    1.000
    N2399    N        0.36606    0.86931    0.65457    1.000
    Si2400   Si       0.36956    0.77897    0.63931    1.000
    Si2401   Si       0.39566    0.84039    0.63942    1.000
    Si2402   Si       0.38604    0.85841    0.73926    1.000
    Si2403   Si       0.34267    0.88180    0.69066    1.000
    N2404    N        0.36797    0.91607    0.70550    1.000
    Si2405   Si       0.37860    0.99962    0.73083    1.000
    Si2406   Si       0.37026    0.92333    0.74723    1.000
    N2407    N        0.37627    0.98490    0.69062    1.000
    N2408    N        0.35663    0.93985    0.63557    1.000
    Si2409   Si       0.37741    0.94521    0.67397    1.000
    Si2410   Si       0.36203    0.79602    0.78106    1.000
    N2411    N        0.39411    0.82211    0.76366    1.000
    N2412    N        0.34599    0.82409    0.81375    1.000
    N2413    N        0.35817    0.76204    0.81882    1.000
    N2414    N        0.39122    0.89035    0.76708    1.000
    N2415    N        0.35695    0.96214    0.82713    1.000
    Si2416   Si       0.38081    0.98570    0.85640    1.000
    Si2417   Si       0.35416    0.91997    0.83779    1.000
    N2418    N        0.39626    0.90443    0.83576    1.000
    Si2419   Si       0.34590    0.97707    0.78637    1.000
    N2420    N        0.39343    0.96208    0.74943    1.000
    Si2421   Si       0.38264    0.81321    0.95367    1.000
    N2422    N        0.35252    0.83641    0.93145    1.000
    N2423    N        0.37910    0.77632    0.93234    1.000
    N2424    N        0.37880    0.80513    0.99626    1.000
    Si2425   Si       0.34088    0.94005    0.96579    1.000
    N2426    N        0.35242    0.99338    0.88805    1.000
    N2427    N        0.36494    0.97567    0.98009    1.000
    N2428    N        0.36159    0.90374    0.95314    1.000
    Si2429   Si       0.42014    0.09728    0.05772    1.000
    N2430    N        0.43519    0.11931    0.02390    1.000
    Si2431   Si       0.43040    0.02637    0.02953    1.000
    N2432    N        0.45161    0.08715    0.08592    1.000
    N2433    N        0.45390    0.01872    0.06703    1.000
    N2434    N        0.40210    0.05798    0.04381    1.000
    N2435    N        0.45432    0.04901    0.99842    1.000
    Si2436   Si       0.44538    0.16195    0.03491    1.000
    N2437    N        0.44522    0.19473    0.00428    1.000
    N2438    N        0.41128    0.18984    0.11420    1.000
    Si2439   Si       0.45252    0.19728    0.11364    1.000
    N2440    N        0.40122    0.17772    0.04435    1.000
    Si2441   Si       0.40692    0.21183    0.01815    1.000
    N2442    N        0.44444    0.09915    0.16105    1.000
    Si2443   Si       0.40676    0.08018    0.16543    1.000
    Si2444   Si       0.42960    0.01993    0.21211    1.000
    N2445    N        0.40513    0.04143    0.18417    1.000
    Si2446   Si       0.45733    0.11885    0.19834    1.000
    N2447    N        0.42677    0.14578    0.21150    1.000
    Si2448   Si       0.43217    0.18772    0.21364    1.000
    N2449    N        0.41376    0.21083    0.18264    1.000
    Si2450   Si       0.42292    0.07017    0.32980    1.000
    N2451    N        0.42003    0.02653    0.32612    1.000
    N2452    N        0.44529    0.09188    0.29798    1.000
    Si2453   Si       0.43372    0.07774    0.25825    1.000
    N2454    N        0.42982    0.03522    0.25341    1.000
    N2455    N        0.43401    0.14173    0.35166    1.000
    Si2456   Si       0.42542    0.18548    0.28499    1.000
    N2457    N        0.42348    0.20639    0.32316    1.000
    Si2458   Si       0.45460    0.21934    0.35305    1.000
    N2459    N        0.40970    0.20131    0.25000    1.000
    N2460    N        0.43142    0.25726    0.35548    1.000
    Si2461   Si       0.40398    0.17145    0.34140    1.000
    N2462    N        0.43293    0.01219    0.39418    1.000
    N2463    N        0.42996    0.07786    0.37260    1.000
    N2464    N        0.44874    0.10867    0.49156    1.000
    Si2465   Si       0.42284    0.05322    0.40673    1.000
    N2466    N        0.45124    0.06295    0.43744    1.000
    Si2467   Si       0.42214    0.11883    0.38602    1.000
    N2468    N        0.44549    0.13283    0.42215    1.000
    Si2469   Si       0.41827    0.24217    0.39827    1.000
    N2470    N        0.44063    0.20312    0.39081    1.000
    N2471    N        0.42212    0.11074    0.59592    1.000
    Si2472   Si       0.44010    0.03070    0.52058    1.000
    N2473    N        0.44386    0.06517    0.54542    1.000
    Si2474   Si       0.40883    0.08082    0.56552    1.000
    Si2475   Si       0.40890    0.12301    0.50064    1.000
    N2476    N        0.40205    0.04131    0.58986    1.000
    Si2477   Si       0.45688    0.13492    0.59541    1.000
    N2478    N        0.40547    0.03532    0.49398    1.000
    N2479    N        0.41951    0.16226    0.51787    1.000
    N2480    N        0.44792    0.17588    0.58315    1.000
    Si2481   Si       0.40985    0.24547    0.56892    1.000
    N2482    N        0.45276    0.24102    0.58048    1.000
    Si2483   Si       0.45530    0.16671    0.54151    1.000
    Si2484   Si       0.40119    0.19981    0.50689    1.000
    N2485    N        0.43246    0.22925    0.49733    1.000
    Si2486   Si       0.41560    0.11944    0.70150    1.000
    Si2487   Si       0.42545    0.04765    0.68900    1.000
    N2488    N        0.40940    0.03177    0.72718    1.000
    N2489    N        0.44230    0.08729    0.68247    1.000
    N2490    N        0.43499    0.15224    0.71942    1.000
    N2491    N        0.45065    0.22238    0.71692    1.000
    Si2492   Si       0.40935    0.23614    0.64594    1.000
    N2493    N        0.44840    0.22054    0.64367    1.000
    Si2494   Si       0.45117    0.18481    0.74152    1.000
    Si2495   Si       0.42609    0.06216    0.83558    1.000
    Si2496   Si       0.43192    0.04050    0.76400    1.000
    N2497    N        0.40687    0.06423    0.79090    1.000
    Si2498   Si       0.45907    0.12990    0.86402    1.000
    N2499    N        0.44120    0.14571    0.82758    1.000
    Si2500   Si       0.44778    0.18643    0.81730    1.000
    N2501    N        0.43127    0.19512    0.77745    1.000
    N2502    N        0.42640    0.22100    0.83280    1.000
    Si2503   Si       0.41067    0.23006    0.79266    1.000
    Si2504   Si       0.41393    0.25710    0.85606    1.000
    Si2505   Si       0.43352    0.04120    0.94469    1.000
    N2506    N        0.41953    0.07951    0.95666    1.000
    Si2507   Si       0.44523    0.09232    0.99103    1.000
    N2508    N        0.40825    0.01174    0.92625    1.000
    N2509    N        0.43567    0.24014    0.95391    1.000
    N2510    N        0.43752    0.15031    0.89680    1.000
    N2511    N        0.43086    0.35424    0.11133    1.000
    N2512    N        0.44903    0.29190    0.07269    1.000
    Si2513   Si       0.43277    0.34964    0.00815    1.000
    Si2514   Si       0.41334    0.28809    0.04840    1.000
    Si2515   Si       0.42656    0.31077    0.10698    1.000
    N2516    N        0.45654    0.35771    0.04403    1.000
    Si2517   Si       0.43086    0.37996    0.07454    1.000
    N2518    N        0.40851    0.31413    0.01351    1.000
    N2519    N        0.40913    0.38510    0.99883    1.000
    N2520    N        0.44703    0.46439    0.02207    1.000
    Si2521   Si       0.42388    0.45338    0.05542    1.000
    N2522    N        0.41561    0.48239    0.08640    1.000
    N2523    N        0.44629    0.42004    0.07436    1.000
    Si2524   Si       0.45290    0.49108    0.11062    1.000
    N2525    N        0.42994    0.35133    0.18877    1.000
    N2526    N        0.43994    0.29420    0.14424    1.000
    Si2527   Si       0.41619    0.31005    0.17720    1.000
    Si2528   Si       0.42231    0.37573    0.14992    1.000
    N2529    N        0.40647    0.27873    0.20556    1.000
    Si2530   Si       0.40834    0.36000    0.22761    1.000
    Si2531   Si       0.40621    0.48487    0.16503    1.000
    N2532    N        0.45715    0.43850    0.21852    1.000
    N2533    N        0.44421    0.41151    0.15623    1.000
    N2534    N        0.44984    0.47989    0.15275    1.000
    Si2535   Si       0.44232    0.47710    0.23132    1.000
    N2536    N        0.40708    0.48439    0.20724    1.000
    Si2537   Si       0.41068    0.31911    0.29873    1.000
    N2538    N        0.41566    0.32671    0.25448    1.000
    N2539    N        0.45302    0.32426    0.31484    1.000
    N2540    N        0.41109    0.27209    0.28530    1.000
    N2541    N        0.42762    0.37698    0.37236    1.000
    Si2542   Si       0.42139    0.28414    0.24545    1.000
    N2543    N        0.41498    0.39366    0.25527    1.000
    Si2544   Si       0.41839    0.44521    0.33606    1.000
    N2545    N        0.43458    0.48520    0.27225    1.000
    Si2546   Si       0.45686    0.40562    0.24915    1.000
    N2547    N        0.45768    0.44501    0.31966    1.000
    Si2548   Si       0.40863    0.30435    0.44077    1.000
    N2549    N        0.43306    0.27388    0.42413    1.000
    N2550    N        0.43487    0.33424    0.45342    1.000
    Si2551   Si       0.45649    0.33593    0.49055    1.000
    N2552    N        0.46101    0.29051    0.49560    1.000
    N2553    N        0.42047    0.44055    0.37843    1.000
    N2554    N        0.43346    0.45342    0.47121    1.000
    Si2555   Si       0.44422    0.49102    0.45349    1.000
    N2556    N        0.41587    0.39959    0.43754    1.000
    Si2557   Si       0.44971    0.41562    0.46100    1.000
    N2558    N        0.41002    0.50264    0.42942    1.000
    Si2559   Si       0.43867    0.40863    0.40006    1.000
    Si2560   Si       0.43540    0.31789    0.55551    1.000
    N2561    N        0.43250    0.34837    0.52321    1.000
    N2562    N        0.42697    0.33723    0.59217    1.000
    N2563    N        0.41364    0.28222    0.54558    1.000
    Si2564   Si       0.42258    0.27181    0.50355    1.000
    Si2565   Si       0.43924    0.39214    0.52751    1.000
    Si2566   Si       0.44847    0.44786    0.57315    1.000
    N2567    N        0.40681    0.45373    0.58015    1.000
    N2568    N        0.45388    0.40431    0.56592    1.000
    N2569    N        0.40555    0.41821    0.52179    1.000
    Si2570   Si       0.43455    0.50830    0.52630    1.000
    Si2571   Si       0.45533    0.33340    0.62703    1.000
    N2572    N        0.43658    0.29684    0.71958    1.000
    N2573    N        0.43002    0.33678    0.66459    1.000
    N2574    N        0.44687    0.37089    0.72087    1.000
    Si2575   Si       0.45297    0.33196    0.70149    1.000
    Si2576   Si       0.45292    0.25992    0.73999    1.000
    N2577    N        0.42190    0.39394    0.62413    1.000
    Si2578   Si       0.42146    0.40646    0.71529    1.000
    Si2579   Si       0.45184    0.46431    0.70272    1.000
    N2580    N        0.43368    0.49983    0.71834    1.000
    N2581    N        0.42520    0.49674    0.63008    1.000
    N2582    N        0.44930    0.43741    0.73978    1.000
    Si2583   Si       0.40289    0.41844    0.65350    1.000
    N2584    N        0.43390    0.43322    0.67944    1.000
    Si2585   Si       0.43829    0.30262    0.79609    1.000
    N2586    N        0.42648    0.29487    0.83891    1.000
    N2587    N        0.43125    0.36454    0.85461    1.000
    N2588    N        0.44956    0.37613    0.78792    1.000
    N2589    N        0.40565    0.32683    0.77936    1.000
    Si2590   Si       0.40561    0.37173    0.77784    1.000
    N2591    N        0.43302    0.26464    0.77745    1.000
    Si2592   Si       0.44584    0.32354    0.86677    1.000
    Si2593   Si       0.44465    0.39346    0.82780    1.000
    N2594    N        0.41611    0.42535    0.81568    1.000
    Si2595   Si       0.42935    0.44390    0.77852    1.000
    Si2596   Si       0.44158    0.27757    0.93083    1.000
    N2597    N        0.44156    0.32509    0.91120    1.000
    Si2598   Si       0.45517    0.36328    0.93374    1.000
    N2599    N        0.41069    0.37611    0.92675    1.000
    N2600    N        0.45697    0.34302    0.97214    1.000
    N2601    N        0.43784    0.26035    0.89182    1.000
    N2602    N        0.43742    0.47302    0.91982    1.000
    Si2603   Si       0.41244    0.40372    0.96087    1.000
    N2604    N        0.45512    0.40857    0.95177    1.000
    Si2605   Si       0.42116    0.58469    0.01896    1.000
    Si2606   Si       0.45029    0.62174    0.11620    1.000
    N2607    N        0.45186    0.56961    0.04469    1.000
    N2608    N        0.41598    0.62931    0.02306    1.000
    N2609    N        0.45625    0.53328    0.11161    1.000
    N2610    N        0.43717    0.64676    0.08472    1.000
    N2611    N        0.43379    0.72067    0.06956    1.000
    Si2612   Si       0.41500    0.73013    0.11078    1.000
    N2613    N        0.40798    0.69687    0.00417    1.000
    Si2614   Si       0.43621    0.66362    0.00116    1.000
    Si2615   Si       0.45862    0.68371    0.06888    1.000
    N2616    N        0.41914    0.59191    0.12462    1.000
    N2617    N        0.42310    0.56124    0.23670    1.000
    Si2618   Si       0.43004    0.55160    0.13998    1.000
    N2619    N        0.45595    0.54998    0.17568    1.000
    Si2620   Si       0.43096    0.62239    0.24526    1.000
    Si2621   Si       0.46103    0.56227    0.21553    1.000
    Si2622   Si       0.43900    0.74035    0.23014    1.000
    N2623    N        0.40698    0.73911    0.19815    1.000
    N2624    N        0.43299    0.70486    0.14013    1.000
    N2625    N        0.43981    0.66518    0.24414    1.000
    Si2626   Si       0.44064    0.54365    0.33893    1.000
    N2627    N        0.41824    0.61566    0.28866    1.000
    N2628    N        0.41618    0.54294    0.30490    1.000
    N2629    N        0.42213    0.63379    0.36858    1.000
    Si2630   Si       0.43862    0.70458    0.34647    1.000
    N2631    N        0.42310    0.67918    0.31603    1.000
    N2632    N        0.42000    0.72919    0.26791    1.000
    Si2633   Si       0.41515    0.68656    0.27357    1.000
    N2634    N        0.41610    0.74207    0.33824    1.000
    Si2635   Si       0.40350    0.75496    0.29926    1.000
    N2636    N        0.41535    0.55013    0.37285    1.000
    Si2637   Si       0.41010    0.54386    0.41498    1.000
    N2638    N        0.43207    0.56827    0.44320    1.000
    Si2639   Si       0.41313    0.60560    0.45294    1.000
    N2640    N        0.45105    0.51776    0.48786    1.000
    Si2641   Si       0.46175    0.55612    0.47018    1.000
    N2642    N        0.43178    0.73140    0.45540    1.000
    Si2643   Si       0.45487    0.75996    0.48058    1.000
    N2644    N        0.42788    0.64348    0.43778    1.000
    Si2645   Si       0.44748    0.72582    0.41654    1.000
    Si2646   Si       0.41331    0.65982    0.40170    1.000
    N2647    N        0.42692    0.69983    0.38730    1.000
    Si2648   Si       0.43197    0.58309    0.52779    1.000
    N2649    N        0.42382    0.54398    0.54667    1.000
    N2650    N        0.43940    0.61559    0.55301    1.000
    N2651    N        0.40817    0.56454    0.61442    1.000
    N2652    N        0.41886    0.66698    0.59798    1.000
    Si2653   Si       0.44035    0.72299    0.55059    1.000
    N2654    N        0.44962    0.68331    0.53452    1.000
    Si2655   Si       0.42039    0.65627    0.55490    1.000
    N2656    N        0.45342    0.75591    0.52712    1.000
    N2657    N        0.46015    0.72720    0.58929    1.000
    Si2658   Si       0.45466    0.53945    0.71298    1.000
    Si2659   Si       0.44874    0.60766    0.73520    1.000
    Si2660   Si       0.41238    0.53531    0.64627    1.000
    N2661    N        0.43730    0.55554    0.67557    1.000
    N2662    N        0.43732    0.62053    0.64915    1.000
    N2663    N        0.43636    0.56717    0.74225    1.000
    N2664    N        0.42007    0.63551    0.71898    1.000
    Si2665   Si       0.41528    0.74338    0.74035    1.000
    Si2666   Si       0.45307    0.65329    0.62398    1.000
    Si2667   Si       0.44565    0.72424    0.63030    1.000
    Si2668   Si       0.42980    0.67779    0.72410    1.000
    N2669    N        0.40340    0.72407    0.63154    1.000
    N2670    N        0.40949    0.71386    0.70817    1.000
    N2671    N        0.43099    0.57700    0.81324    1.000
    Si2672   Si       0.42681    0.54953    0.78153    1.000
    Si2673   Si       0.43960    0.62027    0.81016    1.000
    N2674    N        0.44537    0.75046    0.77100    1.000
    N2675    N        0.42352    0.68917    0.76689    1.000
    N2676    N        0.43870    0.69803    0.82874    1.000
    Si2677   Si       0.45385    0.71294    0.79028    1.000
    Si2678   Si       0.40374    0.68169    0.80423    1.000
    Si2679   Si       0.45983    0.67754    0.86095    1.000
    N2680    N        0.45133    0.57318    0.87464    1.000
    N2681    N        0.40887    0.59915    0.92149    1.000
    Si2682   Si       0.40680    0.57361    0.88467    1.000
    N2683    N        0.43322    0.57183    0.97926    1.000
    Si2684   Si       0.44163    0.60370    0.94962    1.000
    Si2685   Si       0.44308    0.53106    0.96781    1.000
    N2686    N        0.40438    0.51019    0.96873    1.000
    Si2687   Si       0.44251    0.51056    0.89323    1.000
    N2688    N        0.40323    0.52999    0.88582    1.000
    N2689    N        0.44206    0.68191    0.90005    1.000
    Si2690   Si       0.42608    0.72661    0.96586    1.000
    N2691    N        0.43665    0.74663    0.92875    1.000
    N2692    N        0.44270    0.64646    0.96216    1.000
    N2693    N        0.43899    0.86818    0.04487    1.000
    N2694    N        0.44304    0.79165    0.04765    1.000
    Si2695   Si       0.40842    0.78405    0.02166    1.000
    N2696    N        0.43226    0.76988    0.10934    1.000
    Si2697   Si       0.42580    0.81177    0.12078    1.000
    Si2698   Si       0.45635    0.75869    0.07327    1.000
    Si2699   Si       0.40292    0.86808    0.07201    1.000
    N2700    N        0.40777    0.89499    0.10751    1.000
    Si2701   Si       0.43428    0.89651    0.01115    1.000
    N2702    N        0.41372    0.96226    0.08580    1.000
    N2703    N        0.42884    0.98836    0.01055    1.000
    Si2704   Si       0.45424    0.97972    0.08911    1.000
    N2705    N        0.45154    0.84612    0.12929    1.000
    N2706    N        0.44946    0.78157    0.23187    1.000
    N2707    N        0.41178    0.83734    0.22298    1.000
    N2708    N        0.41928    0.87861    0.17592    1.000
    Si2709   Si       0.44564    0.86389    0.20848    1.000
    Si2710   Si       0.43588    0.88505    0.13741    1.000
    N2711    N        0.41534    0.94747    0.15665    1.000
    N2712    N        0.40740    0.98292    0.21600    1.000
    Si2713   Si       0.45798    0.95182    0.15594    1.000
    N2714    N        0.43094    0.82551    0.35863    1.000
    N2715    N        0.42193    0.86251    0.29432    1.000
    N2716    N        0.41730    0.79553    0.29119    1.000
    Si2717   Si       0.41471    0.82807    0.31875    1.000
    Si2718   Si       0.41249    0.80102    0.24581    1.000
    Si2719   Si       0.40724    0.00426    0.35996    1.000
    Si2720   Si       0.43892    0.89687    0.27425    1.000
    Si2721   Si       0.41251    0.94136    0.31610    1.000
    N2722    N        0.45101    0.92765    0.30369    1.000
    N2723    N        0.40944    0.96129    0.35446    1.000
    N2724    N        0.40324    0.91631    0.25730    1.000
    N2725    N        0.40082    0.97494    0.28912    1.000
    Si2726   Si       0.43067    0.00717    0.28871    1.000
    N2727    N        0.43441    0.76430    0.39803    1.000
    N2728    N        0.44467    0.86392    0.49171    1.000
    N2729    N        0.43401    0.79829    0.47500    1.000
    N2730    N        0.44064    0.83279    0.41964    1.000
    Si2731   Si       0.41439    0.85175    0.39124    1.000
    Si2732   Si       0.45340    0.80297    0.38901    1.000
    Si2733   Si       0.45487    0.83486    0.46034    1.000
    Si2734   Si       0.44934    0.90347    0.47207    1.000
    N2735    N        0.40658    0.90377    0.46616    1.000
    N2736    N        0.42702    0.89297    0.38700    1.000
    Si2737   Si       0.40135    0.93028    0.38639    1.000
    N2738    N        0.41049    0.95164    0.42136    1.000
    Si2739   Si       0.44622    0.97419    0.41149    1.000
    N2740    N        0.44443    0.80992    0.57463    1.000
    Si2741   Si       0.45231    0.85018    0.53347    1.000
    N2742    N        0.40775    0.85627    0.54194    1.000
    Si2743   Si       0.40145    0.81999    0.56733    1.000
    Si2744   Si       0.43522    0.95794    0.51687    1.000
    N2745    N        0.42815    0.92295    0.54323    1.000
    N2746    N        0.43455    0.99541    0.54577    1.000
    Si2747   Si       0.41626    0.93267    0.61616    1.000
    N2748    N        0.40634    0.97420    0.60988    1.000
    Si2749   Si       0.42848    0.00565    0.58850    1.000
    N2750    N        0.45890    0.93179    0.60348    1.000
    N2751    N        0.40448    0.80064    0.65378    1.000
    Si2752   Si       0.44910    0.85529    0.67734    1.000
    N2753    N        0.42747    0.77880    0.71394    1.000
    Si2754   Si       0.42891    0.81584    0.73451    1.000
    Si2755   Si       0.44119    0.78685    0.67407    1.000
    N2756    N        0.41753    0.85117    0.70990    1.000
    N2757    N        0.43792    0.85274    0.63607    1.000
    N2758    N        0.41644    0.93150    0.66046    1.000
    N2759    N        0.45199    0.95824    0.71723    1.000
    Si2760   Si       0.45246    0.93048    0.68430    1.000
    Si2761   Si       0.44796    0.80191    0.85754    1.000
    N2762    N        0.44385    0.84500    0.86694    1.000
    N2763    N        0.41351    0.77792    0.87004    1.000
    N2764    N        0.45311    0.86835    0.80588    1.000
    Si2765   Si       0.41898    0.89505    0.80081    1.000
    N2766    N        0.44159    0.93086    0.78928    1.000
    N2767    N        0.44532    0.99888    0.77364    1.000
    Si2768   Si       0.43620    0.96027    0.75737    1.000
    Si2769   Si       0.41617    0.91672    0.87211    1.000
    Si2770   Si       0.43608    0.85667    0.90850    1.000
    N2771    N        0.41902    0.82243    0.93044    1.000
    Si2772   Si       0.41655    0.78315    0.91222    1.000
    N2773    N        0.43376    0.87731    0.97244    1.000
    N2774    N        0.42909    0.76126    0.99246    1.000
    N2775    N        0.41075    0.95992    0.87409    1.000
    N2776    N        0.41715    0.94803    0.94780    1.000
    Si2777   Si       0.40374    0.96205    0.98590    1.000
    Si2778   Si       0.40544    0.90274    0.95073    1.000
    Si2779   Si       0.42564    0.97427    0.91220    1.000
    N2780    N        0.41294    0.89332    0.90879    1.000
    Si2781   Si       0.47870    0.05268    0.08353    1.000
    N2782    N        0.49890    0.12148    0.11798    1.000
    N2783    N        0.51685    0.06109    0.06783    1.000
    Si2784   Si       0.49783    0.18608    0.05584    1.000
    N2785    N        0.49131    0.22825    0.04699    1.000
    N2786    N        0.49322    0.15797    0.02421    1.000
    N2787    N        0.46732    0.23927    0.11347    1.000
    N2788    N        0.46264    0.17523    0.07702    1.000
    Si2789   Si       0.47589    0.25707    0.07623    1.000
    Si2790   Si       0.46743    0.09303    0.12633    1.000
    N2791    N        0.48523    0.05296    0.12538    1.000
    Si2792   Si       0.49155    0.05688    0.22080    1.000
    Si2793   Si       0.48532    0.01835    0.15290    1.000
    N2794    N        0.47063    0.02575    0.19481    1.000
    N2795    N        0.46060    0.08760    0.22687    1.000
    Si2796   Si       0.50180    0.15298    0.14794    1.000
    N2797    N        0.48183    0.25016    0.18445    1.000
    N2798    N        0.47403    0.19666    0.22651    1.000
    Si2799   Si       0.48814    0.20686    0.18725    1.000
    N2800    N        0.49607    0.13478    0.18765    1.000
    N2801    N        0.47449    0.18564    0.15105    1.000
    Si2802   Si       0.50344    0.02258    0.29951    1.000
    N2803    N        0.50863    0.04327    0.25929    1.000
    N2804    N        0.49895    0.12974    0.33037    1.000
    N2805    N        0.51244    0.05732    0.32605    1.000
    Si2806   Si       0.45789    0.13097    0.31550    1.000
    Si2807   Si       0.51073    0.16442    0.35551    1.000
    N2808    N        0.49288    0.20348    0.34346    1.000
    Si2809   Si       0.49258    0.17920    0.26098    1.000
    N2810    N        0.46223    0.16193    0.28535    1.000
    Si2811   Si       0.51322    0.23337    0.31844    1.000
    N2812    N        0.50377    0.10452    0.44464    1.000
    Si2813   Si       0.47649    0.03066    0.45381    1.000
    N2814    N        0.51651    0.03976    0.43832    1.000
    Si2815   Si       0.46256    0.10442    0.44959    1.000
    N2816    N        0.47518    0.02918    0.49524    1.000
    N2817    N        0.50278    0.16236    0.39869    1.000
    N2818    N        0.50784    0.23829    0.47615    1.000
    Si2819   Si       0.51564    0.20826    0.44424    1.000
    Si2820   Si       0.46972    0.21540    0.48442    1.000
    N2821    N        0.47402    0.19697    0.44544    1.000
    Si2822   Si       0.46176    0.17243    0.41127    1.000
    Si2823   Si       0.46941    0.09495    0.52785    1.000
    N2824    N        0.47537    0.12735    0.55550    1.000
    N2825    N        0.51278    0.09071    0.52250    1.000
    N2826    N        0.46708    0.01572    0.60688    1.000
    Si2827   Si       0.51202    0.01047    0.50853    1.000
    Si2828   Si       0.46395    0.20788    0.60654    1.000
    N2829    N        0.48338    0.18549    0.51526    1.000
    N2830    N        0.50503    0.19528    0.61488    1.000
    Si2831   Si       0.48418    0.03072    0.64572    1.000
    Si2832   Si       0.47771    0.10456    0.66373    1.000
    N2833    N        0.50587    0.11792    0.69501    1.000
    N2834    N        0.49531    0.07323    0.63798    1.000
    N2835    N        0.45744    0.01911    0.67773    1.000
    N2836    N        0.49633    0.18223    0.68054    1.000
    Si2837   Si       0.51019    0.16322    0.64340    1.000
    Si2838   Si       0.50721    0.15823    0.71304    1.000
    N2839    N        0.47691    0.13533    0.63322    1.000
    Si2840   Si       0.47373    0.21767    0.67986    1.000
    N2841    N        0.49999    0.25238    0.67453    1.000
    Si2842   Si       0.49164    0.05785    0.85097    1.000
    Si2843   Si       0.50934    0.05226    0.75284    1.000
    N2844    N        0.50993    0.01477    0.77714    1.000
    N2845    N        0.46391    0.03873    0.82284    1.000
    N2846    N        0.46731    0.06296    0.75239    1.000
    N2847    N        0.46060    0.08573    0.86172    1.000
    N2848    N        0.49079    0.19644    0.81708    1.000
    N2849    N        0.49242    0.17001    0.75233    1.000
    Si2850   Si       0.51073    0.21262    0.85264    1.000
    N2851    N        0.50757    0.25497    0.85486    1.000
    Si2852   Si       0.51479    0.17493    0.78825    1.000
    N2853    N        0.51248    0.02720    0.87361    1.000
    N2854    N        0.48305    0.11031    0.97416    1.000
    N2855    N        0.47434    0.03340    0.93695    1.000
    Si2856   Si       0.48915    0.03044    0.97835    1.000
    Si2857   Si       0.49783    0.00916    0.91037    1.000
    Si2858   Si       0.46581    0.21496    0.97222    1.000
    N2859    N        0.47590    0.17782    0.94918    1.000
    N2860    N        0.49837    0.24273    0.98359    1.000
    Si2861   Si       0.48083    0.25032    0.88942    1.000
    Si2862   Si       0.47649    0.16919    0.90761    1.000
    N2863    N        0.48453    0.20772    0.88905    1.000
    N2864    N        0.49735    0.14362    0.87908    1.000
    Si2865   Si       0.49298    0.15278    0.98037    1.000
    Si2866   Si       0.48155    0.31702    0.05469    1.000
    N2867    N        0.49353    0.30097    0.01373    1.000
    Si2868   Si       0.49820    0.37427    0.04015    1.000
    N2869    N        0.51107    0.28332    0.07015    1.000
    N2870    N        0.51234    0.34630    0.07033    1.000
    N2871    N        0.51285    0.36824    1.00000    1.000
    Si2872   Si       0.51210    0.26024    0.02318    1.000
    N2873    N        0.48589    0.47170    0.09033    1.000
    Si2874   Si       0.48851    0.42801    0.08416    1.000
    Si2875   Si       0.48364    0.47859    0.00216    1.000
    N2876    N        0.51596    0.41029    0.05510    1.000
    N2877    N        0.51096    0.40670    0.11508    1.000
    Si2878   Si       0.51392    0.49576    0.06847    1.000
    N2879    N        0.47447    0.36944    0.23468    1.000
    Si2880   Si       0.47570    0.26872    0.14469    1.000
    Si2881   Si       0.47213    0.35275    0.19699    1.000
    N2882    N        0.50645    0.29705    0.13292    1.000
    N2883    N        0.49998    0.36915    0.16902    1.000
    N2884    N        0.49419    0.31513    0.19698    1.000
    Si2885   Si       0.49340    0.27730    0.21788    1.000
    Si2886   Si       0.51809    0.32985    0.16217    1.000
    N2887    N        0.50816    0.44288    0.17485    1.000
    N2888    N        0.47355    0.49871    0.21177    1.000
    Si2889   Si       0.46446    0.44270    0.17558    1.000
    Si2890   Si       0.47872    0.29965    0.28643    1.000
    Si2891   Si       0.50635    0.36528    0.26529    1.000
    Si2892   Si       0.46764    0.28397    0.35125    1.000
    N2893    N        0.51181    0.32361    0.27451    1.000
    N2894    N        0.48984    0.26946    0.31564    1.000
    N2895    N        0.46497    0.28210    0.24885    1.000
    N2896    N        0.49345    0.38077    0.34933    1.000
    Si2897   Si       0.45696    0.35222    0.35176    1.000
    N2898    N        0.48704    0.40132    0.28166    1.000
    Si2899   Si       0.49235    0.41502    0.32078    1.000
    N2900    N        0.50072    0.48726    0.27581    1.000
    Si2901   Si       0.46656    0.48414    0.30103    1.000
    Si2902   Si       0.50427    0.50211    0.35947    1.000
    N2903    N        0.46605    0.50698    0.33780    1.000
    N2904    N        0.50324    0.29924    0.44136    1.000
    Si2905   Si       0.50218    0.28137    0.48167    1.000
    Si2906   Si       0.47080    0.29299    0.41318    1.000
    N2907    N        0.46285    0.31819    0.37831    1.000
    N2908    N        0.49129    0.26302    0.38350    1.000
    N2909    N        0.46808    0.39682    0.49340    1.000
    N2910    N        0.48214    0.48903    0.43139    1.000
    Si2911   Si       0.50314    0.45231    0.41797    1.000
    N2912    N        0.47312    0.42122    0.42257    1.000
    N2913    N        0.51533    0.46528    0.37933    1.000
    N2914    N        0.47765    0.30337    0.55939    1.000
    Si2915   Si       0.48397    0.27157    0.58607    1.000
    N2916    N        0.49884    0.34250    0.50361    1.000
    N2917    N        0.48607    0.36448    0.61746    1.000
    Si2918   Si       0.51247    0.32122    0.53933    1.000
    Si2919   Si       0.50833    0.38395    0.50496    1.000
    Si2920   Si       0.50106    0.49032    0.56799    1.000
    N2921    N        0.46906    0.44371    0.61302    1.000
    N2922    N        0.46076    0.48106    0.54838    1.000
    Si2923   Si       0.46165    0.40026    0.60876    1.000
    N2924    N        0.47548    0.29454    0.62197    1.000
    Si2925   Si       0.50488    0.29373    0.65447    1.000
    N2926    N        0.48959    0.32472    0.68170    1.000
    N2927    N        0.49488    0.33619    0.74642    1.000
    N2928    N        0.49361    0.26679    0.74839    1.000
    Si2929   Si       0.46690    0.48321    0.63259    1.000
    N2930    N        0.48074    0.48244    0.67534    1.000
    Si2931   Si       0.51436    0.49801    0.69733    1.000
    N2932    N        0.48273    0.30408    0.80429    1.000
    Si2933   Si       0.50906    0.29435    0.83776    1.000
    Si2934   Si       0.50732    0.30113    0.76808    1.000
    Si2935   Si       0.47629    0.37437    0.75257    1.000
    N2936    N        0.48878    0.31612    0.86857    1.000
    Si2937   Si       0.48620    0.49477    0.81773    1.000
    N2938    N        0.48347    0.40748    0.83686    1.000
    N2939    N        0.47061    0.46220    0.79283    1.000
    Si2940   Si       0.48898    0.44574    0.75807    1.000
    Si2941   Si       0.50912    0.43203    0.85789    1.000
    N2942    N        0.50397    0.40648    0.75428    1.000
    N2943    N        0.51375    0.47233    0.84687    1.000
    N2944    N        0.49970    0.36066    0.92196    1.000
    Si2945   Si       0.50773    0.31737    0.90802    1.000
    N2946    N        0.49154    0.27569    0.92242    1.000
    Si2947   Si       0.49776    0.33119    0.98379    1.000
    Si2948   Si       0.52062    0.39563    0.90564    1.000
    N2949    N        0.49638    0.43248    0.90081    1.000
    N2950    N        0.49582    0.46178    0.96296    1.000
    Si2951   Si       0.46958    0.44561    0.93157    1.000
    N2952    N        0.48497    0.59626    0.10423    1.000
    Si2953   Si       0.48451    0.55351    0.02056    1.000
    N2954    N        0.50228    0.53743    0.05771    1.000
    Si2955   Si       0.47116    0.56119    0.08194    1.000
    N2956    N        0.51092    0.58256    0.00490    1.000
    N2957    N        0.47553    0.52037    0.99550    1.000
    Si2958   Si       0.49258    0.70892    0.00556    1.000
    N2959    N        0.48940    0.68135    0.09866    1.000
    N2960    N        0.49326    0.75150    0.02223    1.000
    N2961    N        0.46808    0.67783    0.02736    1.000
    N2962    N        0.49696    0.75291    0.08938    1.000
    Si2963   Si       0.47730    0.51215    0.17046    1.000
    N2964    N        0.49960    0.55315    0.23499    1.000
    Si2965   Si       0.48218    0.63001    0.18578    1.000
    Si2966   Si       0.50724    0.50898    0.23955    1.000
    N2967    N        0.51880    0.51028    0.15628    1.000
    N2968    N        0.46240    0.60882    0.21786    1.000
    Si2969   Si       0.50960    0.73102    0.19365    1.000
    Si2970   Si       0.47244    0.68388    0.13836    1.000
    N2971    N        0.50104    0.71212    0.15338    1.000
    N2972    N        0.50771    0.65599    0.21055    1.000
    N2973    N        0.47485    0.71979    0.21896    1.000
    Si2974   Si       0.48053    0.68000    0.23550    1.000
    N2975    N        0.46089    0.64421    0.15216    1.000
    Si2976   Si       0.50127    0.59939    0.31696    1.000
    N2977    N        0.46695    0.57917    0.33707    1.000
    N2978    N        0.51437    0.61233    0.27599    1.000
    Si2979   Si       0.46159    0.61383    0.36363    1.000
    N2980    N        0.48089    0.63764    0.33218    1.000
    Si2981   Si       0.49693    0.67335    0.31697    1.000
    N2982    N        0.49481    0.67857    0.27388    1.000
    N2983    N        0.48325    0.70401    0.34616    1.000
    N2984    N        0.49176    0.60435    0.39298    1.000
    N2985    N        0.49697    0.55878    0.44664    1.000
    Si2986   Si       0.50952    0.59956    0.43058    1.000
    Si2987   Si       0.51034    0.52179    0.42766    1.000
    N2988    N        0.51500    0.62551    0.46460    1.000
    N2989    N        0.51318    0.53605    0.38555    1.000
    N2990    N        0.50396    0.69074    0.48210    1.000
    Si2991   Si       0.51250    0.71346    0.37670    1.000
    N2992    N        0.48815    0.71425    0.41377    1.000
    Si2993   Si       0.50880    0.72059    0.45109    1.000
    Si2994   Si       0.48203    0.61579    0.56515    1.000
    N2995    N        0.49973    0.57557    0.57352    1.000
    Si2996   Si       0.50250    0.55094    0.61131    1.000
    Si2997   Si       0.50721    0.60448    0.50180    1.000
    N2998    N        0.46870    0.58345    0.50280    1.000
    N2999    N        0.48880    0.51045    0.60589    1.000
    N3000    N        0.50185    0.63538    0.53210    1.000
    N3001    N        0.48815    0.63764    0.60150    1.000
    Si3002   Si       0.49070    0.67725    0.52170    1.000
    Si3003   Si       0.50438    0.73148    0.57873    1.000
    N3004    N        0.51359    0.70165    0.54948    1.000
    N3005    N        0.49881    0.53737    0.71166    1.000
    N3006    N        0.49519    0.58133    0.63971    1.000
    N3007    N        0.47981    0.60113    0.70536    1.000
    Si3008   Si       0.51561    0.57769    0.71854    1.000
    Si3009   Si       0.46192    0.59094    0.66748    1.000
    Si3010   Si       0.51883    0.61779    0.62856    1.000
    Si3011   Si       0.50774    0.74828    0.65481    1.000
    N3012    N        0.51856    0.64914    0.66183    1.000
    Si3013   Si       0.49119    0.68019    0.67965    1.000
    N3014    N        0.47261    0.67405    0.71943    1.000
    N3015    N        0.51740    0.71495    0.68147    1.000
    N3016    N        0.46193    0.68843    0.64940    1.000
    N3017    N        0.46455    0.75543    0.65453    1.000
    N3018    N        0.50176    0.56882    0.82884    1.000
    Si3019   Si       0.50223    0.55002    0.78818    1.000
    N3020    N        0.46506    0.52925    0.79130    1.000
    N3021    N        0.46154    0.62832    0.77179    1.000
    N3022    N        0.46343    0.51321    0.85454    1.000
    Si3023   Si       0.45927    0.55438    0.83716    1.000
    Si3024   Si       0.50516    0.63480    0.85054    1.000
    N3025    N        0.46269    0.63655    0.84287    1.000
    N3026    N        0.50340    0.67575    0.86296    1.000
    Si3027   Si       0.49173    0.65931    0.75816    1.000
    N3028    N        0.49284    0.69510    0.78412    1.000
    Si3029   Si       0.48224    0.56252    0.90494    1.000
    N3030    N        0.48209    0.59365    0.93570    1.000
    Si3031   Si       0.51307    0.62005    0.92564    1.000
    N3032    N        0.51685    0.60760    0.88262    1.000
    N3033    N        0.45827    0.53337    0.92804    1.000
    Si3034   Si       0.46240    0.67662    0.93857    1.000
    N3035    N        0.46502    0.70613    0.97182    1.000
    Si3036   Si       0.47618    0.75805    0.91998    1.000
    N3037    N        0.50257    0.66260    0.93228    1.000
    N3038    N        0.50377    0.72715    0.90761    1.000
    N3039    N        0.50189    0.82756    0.06640    1.000
    Si3040   Si       0.46259    0.83039    0.04298    1.000
    Si3041   Si       0.51580    0.79487    0.09389    1.000
    N3042    N        0.46797    0.82249    0.99889    1.000
    N3043    N        0.48208    0.96106    0.06166    1.000
    Si3044   Si       0.46732    0.96976    0.01857    1.000
    N3045    N        0.46513    0.92858    0.00425    1.000
    N3046    N        0.51615    0.89885    0.08304    1.000
    Si3047   Si       0.51583    0.93587    0.06208    1.000
    Si3048   Si       0.48513    0.80513    0.22381    1.000
    N3049    N        0.47482    0.83628    0.19370    1.000
    Si3050   Si       0.48721    0.84113    0.15295    1.000
    N3051    N        0.50512    0.80609    0.13579    1.000
    N3052    N        0.51605    0.77443    0.20373    1.000
    N3053    N        0.51574    0.87161    0.14635    1.000
    N3054    N        0.46508    0.88348    0.24234    1.000
    Si3055   Si       0.50824    0.90842    0.12360    1.000
    N3056    N        0.49001    0.94777    0.18462    1.000
    N3057    N        0.46639    0.91438    0.13275    1.000
    Si3058   Si       0.51772    0.93374    0.21896    1.000
    N3059    N        0.46667    0.98425    0.13070    1.000
    Si3060   Si       0.50522    0.87089    0.25321    1.000
    N3061    N        0.50854    0.82759    0.25261    1.000
    N3062    N        0.51513    0.79592    0.31726    1.000
    N3063    N        0.51607    0.88306    0.29498    1.000
    N3064    N        0.49694    0.88230    0.37259    1.000
    Si3065   Si       0.48595    0.95114    0.29569    1.000
    N3066    N        0.47228    0.99405    0.29748    1.000
    N3067    N        0.50932    0.94212    0.33044    1.000
    N3068    N        0.50388    0.94289    0.25785    1.000
    Si3069   Si       0.51042    0.89954    0.33615    1.000
    N3070    N        0.49839    0.82857    0.45717    1.000
    N3071    N        0.49482    0.79611    0.39324    1.000
    Si3072   Si       0.50922    0.79258    0.43436    1.000
    N3073    N        0.49320    0.76062    0.46062    1.000
    N3074    N        0.47403    0.98689    0.44322    1.000
    N3075    N        0.47517    0.89133    0.43994    1.000
    N3076    N        0.46472    0.93909    0.48956    1.000
    N3077    N        0.46977    0.94383    0.39292    1.000
    Si3078   Si       0.49704    0.95425    0.46265    1.000
    Si3079   Si       0.46909    0.90182    0.39908    1.000
    N3080    N        0.48456    0.82282    0.52356    1.000
    N3081    N        0.50087    0.83052    0.61406    1.000
    N3082    N        0.50975    0.76957    0.55828    1.000
    Si3083   Si       0.47233    0.78889    0.54775    1.000
    N3084    N        0.46454    0.87111    0.57092    1.000
    Si3085   Si       0.46230    0.83928    0.60159    1.000
    Si3086   Si       0.51750    0.83203    0.49718    1.000
    N3087    N        0.50245    0.92308    0.55158    1.000
    N3088    N        0.50902    0.99140    0.54592    1.000
    Si3089   Si       0.46397    0.91444    0.56490    1.000
    Si3090   Si       0.50328    0.00558    0.58733    1.000
    N3091    N        0.47156    0.81800    0.68397    1.000
    Si3092   Si       0.50143    0.83513    0.71852    1.000
    Si3093   Si       0.50663    0.81914    0.65677    1.000
    N3094    N        0.50194    0.87074    0.74471    1.000
    N3095    N        0.46994    0.89063    0.68755    1.000
    N3096    N        0.51949    0.90459    0.63567    1.000
    Si3097   Si       0.51273    0.89193    0.67760    1.000
    Si3098   Si       0.49688    0.93978    0.62391    1.000
    Si3099   Si       0.47923    0.98471    0.69473    1.000
    N3100    N        0.51692    0.98578    0.71619    1.000
    N3101    N        0.48317    0.95551    0.66124    1.000
    Si3102   Si       0.48574    0.85227    0.78063    1.000
    N3103    N        0.50992    0.85399    0.86093    1.000
    Si3104   Si       0.47076    0.78366    0.78263    1.000
    Si3105   Si       0.51113    0.77193    0.83053    1.000
    N3106    N        0.47206    0.79103    0.82514    1.000
    Si3107   Si       0.46961    0.87344    0.84750    1.000
    N3108    N        0.51296    0.76545    0.78528    1.000
    N3109    N        0.46635    0.81879    0.75781    1.000
    N3110    N        0.50968    0.93881    0.76819    1.000
    Si3111   Si       0.48245    0.93368    0.80287    1.000
    N3112    N        0.48091    0.96809    0.82736    1.000
    N3113    N        0.50732    0.90399    0.82368    1.000
    Si3114   Si       0.47726    0.00487    0.80248    1.000
    Si3115   Si       0.48311    0.95107    0.86728    1.000
    N3116    N        0.46143    0.91301    0.86479    1.000
    Si3117   Si       0.49986    0.83152    0.89807    1.000
    Si3118   Si       0.47048    0.85521    0.96969    1.000
    N3119    N        0.49311    0.77339    0.95658    1.000
    N3120    N        0.50374    0.87570    0.98484    1.000
    N3121    N        0.47522    0.79214    0.89308    1.000
    N3122    N        0.47612    0.85501    0.92617    1.000
    Si3123   Si       0.47086    0.77817    0.99399    1.000
    Si3124   Si       0.50553    0.91716    0.98768    1.000
    N3125    N        0.47003    0.97732    0.90144    1.000
    N3126    N        0.49575    0.98996    0.99148    1.000
    Si3127   Si       0.53882    0.06452    0.02779    1.000
    Si3128   Si       0.55608    0.06606    0.08468    1.000
    N3129    N        0.53789    0.10747    0.01700    1.000
    N3130    N        0.56806    0.10871    0.09280    1.000
    Si3131   Si       0.53360    0.13707    0.09917    1.000
    Si3132   Si       0.56163    0.18997    0.09794    1.000
    Si3133   Si       0.53856    0.14944    0.02687    1.000
    N3134    N        0.53389    0.16825    0.06956    1.000
    N3135    N        0.56556    0.23343    0.09775    1.000
    N3136    N        0.55622    0.25733    0.03025    1.000
    N3137    N        0.56796    0.05689    0.12518    1.000
    N3138    N        0.52796    0.08334    0.21704    1.000
    Si3139   Si       0.56509    0.02115    0.14873    1.000
    Si3140   Si       0.53198    0.12879    0.21364    1.000
    N3141    N        0.57428    0.20672    0.23350    1.000
    N3142    N        0.56564    0.15164    0.19622    1.000
    Si3143   Si       0.56036    0.18280    0.16850    1.000
    N3144    N        0.53162    0.20897    0.18618    1.000
    Si3145   Si       0.55205    0.23677    0.21173    1.000
    N3146    N        0.54128    0.16656    0.13272    1.000
    N3147    N        0.55025    0.09567    0.28359    1.000
    Si3148   Si       0.54723    0.04849    0.35599    1.000
    N3149    N        0.55565    0.09544    0.35215    1.000
    Si3150   Si       0.52574    0.09867    0.31942    1.000
    Si3151   Si       0.54629    0.06438    0.25122    1.000
    N3152    N        0.53025    0.00821    0.37019    1.000
    Si3153   Si       0.57251    0.20164    0.35398    1.000
    N3154    N        0.54861    0.23937    0.34721    1.000
    N3155    N        0.55594    0.16301    0.35426    1.000
    Si3156   Si       0.55514    0.18167    0.26306    1.000
    N3157    N        0.52263    0.20716    0.28260    1.000
    N3158    N        0.52506    0.15439    0.24762    1.000
    N3159    N        0.56542    0.04910    0.40325    1.000
    Si3160   Si       0.53890    0.01459    0.41124    1.000
    N3161    N        0.55982    0.08294    0.46733    1.000
    Si3162   Si       0.53745    0.07599    0.43174    1.000
    N3163    N        0.55850    0.12072    0.41747    1.000
    Si3164   Si       0.57253    0.12725    0.37473    1.000
    N3165    N        0.53249    0.17230    0.46225    1.000
    Si3166   Si       0.53213    0.25327    0.38442    1.000
    Si3167   Si       0.52495    0.14181    0.43147    1.000
    N3168    N        0.54203    0.22434    0.41500    1.000
    N3169    N        0.54782    0.03324    0.52001    1.000
    Si3170   Si       0.55020    0.07492    0.50908    1.000
    N3171    N        0.53361    0.03656    0.58869    1.000
    N3172    N        0.53377    0.11432    0.58903    1.000
    Si3173   Si       0.56213    0.01914    0.55851    1.000
    Si3174   Si       0.52993    0.07574    0.60946    1.000
    Si3175   Si       0.52003    0.12451    0.55047    1.000
    N3176    N        0.56958    0.19803    0.59213    1.000
    Si3177   Si       0.53902    0.22182    0.60801    1.000
    N3178    N        0.54217    0.15502    0.53224    1.000
    N3179    N        0.54753    0.21692    0.53002    1.000
    Si3180   Si       0.56581    0.18548    0.55119    1.000
    Si3181   Si       0.52486    0.18416    0.50443    1.000
    N3182    N        0.52301    0.25315    0.58153    1.000
    Si3183   Si       0.54525    0.25646    0.54393    1.000
    Si3184   Si       0.57072    0.12453    0.61691    1.000
    N3185    N        0.57410    0.10688    0.70333    1.000
    Si3186   Si       0.53419    0.09433    0.71574    1.000
    N3187    N        0.52702    0.05157    0.71416    1.000
    Si3188   Si       0.54085    0.01604    0.69494    1.000
    N3189    N        0.56950    0.08092    0.62625    1.000
    N3190    N        0.52305    0.01257    0.65548    1.000
    N3191    N        0.55745    0.23925    0.64386    1.000
    Si3192   Si       0.56490    0.20076    0.74070    1.000
    N3193    N        0.54878    0.16992    0.71352    1.000
    N3194    N        0.55264    0.15007    0.64840    1.000
    Si3195   Si       0.54267    0.24859    0.68391    1.000
    N3196    N        0.55796    0.23871    0.72350    1.000
    Si3197   Si       0.57514    0.14763    0.68657    1.000
    Si3198   Si       0.54227    0.09923    0.80134    1.000
    Si3199   Si       0.55194    0.03852    0.85884    1.000
    N3200    N        0.53025    0.09165    0.76141    1.000
    N3201    N        0.52768    0.07379    0.83447    1.000
    N3202    N        0.57261    0.02410    0.82081    1.000
    N3203    N        0.52708    0.13832    0.81468    1.000
    Si3204   Si       0.53501    0.14428    0.85846    1.000
    N3205    N        0.55173    0.19727    0.78260    1.000
    N3206    N        0.54560    0.18839    0.85927    1.000
    N3207    N        0.54925    0.10915    0.94372    1.000
    Si3208   Si       0.56773    0.02370    0.91945    1.000
    N3209    N        0.56659    0.06123    0.89366    1.000
    Si3210   Si       0.52414    0.09628    0.97607    1.000
    N3211    N        0.52377    0.05428    0.98858    1.000
    N3212    N        0.56900    0.13287    0.88434    1.000
    N3213    N        0.53732    0.16279    0.98366    1.000
    N3214    N        0.56635    0.18848    0.92741    1.000
    N3215    N        0.56104    0.25250    0.95974    1.000
    Si3216   Si       0.56085    0.15182    0.95149    1.000
    Si3217   Si       0.57593    0.17744    0.88685    1.000
    Si3218   Si       0.52989    0.31217    0.09809    1.000
    N3219    N        0.57093    0.30508    0.08471    1.000
    Si3220   Si       0.53591    0.37771    0.09289    1.000
    Si3221   Si       0.57420    0.26503    0.06922    1.000
    N3222    N        0.57850    0.37862    0.08033    1.000
    N3223    N        0.57681    0.44731    0.06014    1.000
    Si3224   Si       0.54298    0.43736    0.03543    1.000
    N3225    N        0.56224    0.41038    0.00703    1.000
    N3226    N        0.55137    0.50273    0.09203    1.000
    N3227    N        0.51706    0.47213    0.03068    1.000
    N3228    N        0.54265    0.34879    0.12556    1.000
    N3229    N        0.55849    0.32961    0.18437    1.000
    N3230    N        0.53115    0.26607    0.23469    1.000
    Si3231   Si       0.57639    0.35880    0.15523    1.000
    N3232    N        0.54165    0.49336    0.21948    1.000
    N3233    N        0.56359    0.39748    0.16821    1.000
    N3234    N        0.57620    0.46746    0.16747    1.000
    Si3235   Si       0.53556    0.47518    0.17966    1.000
    Si3236   Si       0.57770    0.47815    0.23590    1.000
    Si3237   Si       0.52190    0.40514    0.15719    1.000
    Si3238   Si       0.54327    0.29413    0.26611    1.000
    N3239    N        0.55383    0.34476    0.35112    1.000
    N3240    N        0.56624    0.28479    0.30261    1.000
    Si3241   Si       0.53051    0.37636    0.37044    1.000
    N3242    N        0.54606    0.38051    0.25916    1.000
    Si3243   Si       0.53678    0.47396    0.29801    1.000
    Si3244   Si       0.54872    0.44613    0.35907    1.000
    N3245    N        0.52949    0.43743    0.32061    1.000
    N3246    N        0.57519    0.48121    0.28122    1.000
    N3247    N        0.53362    0.50698    0.32781    1.000
    N3248    N        0.56836    0.32165    0.45558    1.000
    N3249    N        0.53086    0.36267    0.41243    1.000
    Si3250   Si       0.53728    0.32010    0.42355    1.000
    N3251    N        0.55409    0.28907    0.39643    1.000
    Si3252   Si       0.57082    0.30358    0.49444    1.000
    N3253    N        0.56225    0.40861    0.37481    1.000
    N3254    N        0.53922    0.39047    0.47617    1.000
    Si3255   Si       0.56545    0.47135    0.45524    1.000
    N3256    N        0.54696    0.50855    0.44507    1.000
    N3257    N        0.54100    0.44132    0.43446    1.000
    Si3258   Si       0.54837    0.39771    0.43567    1.000
    N3259    N        0.53758    0.33712    0.57010    1.000
    N3260    N        0.53270    0.28921    0.51312    1.000
    Si3261   Si       0.52845    0.35434    0.60955    1.000
    N3262    N        0.52099    0.39861    0.54147    1.000
    N3263    N        0.56653    0.46632    0.49946    1.000
    Si3264   Si       0.56634    0.50178    0.52740    1.000
    Si3265   Si       0.54591    0.41811    0.56843    1.000
    N3266    N        0.54861    0.39463    0.60786    1.000
    N3267    N        0.52701    0.45659    0.57207    1.000
    N3268    N        0.54690    0.36301    0.71670    1.000
    N3269    N        0.54788    0.29348    0.69292    1.000
    Si3270   Si       0.56868    0.27928    0.72950    1.000
    Si3271   Si       0.52203    0.32764    0.71136    1.000
    N3272    N        0.53688    0.31555    0.63298    1.000
    Si3273   Si       0.57451    0.30536    0.65761    1.000
    Si3274   Si       0.56116    0.50761    0.63539    1.000
    N3275    N        0.51698    0.47133    0.73355    1.000
    N3276    N        0.55147    0.30050    0.82657    1.000
    N3277    N        0.54860    0.36303    0.79035    1.000
    Si3278   Si       0.56904    0.32558    0.79432    1.000
    Si3279   Si       0.57465    0.31117    0.86226    1.000
    N3280    N        0.54887    0.30297    0.75966    1.000
    Si3281   Si       0.54291    0.38624    0.75627    1.000
    N3282    N        0.57133    0.41794    0.75149    1.000
    Si3283   Si       0.56459    0.50600    0.81168    1.000
    N3284    N        0.57413    0.47013    0.78723    1.000
    Si3285   Si       0.55800    0.46204    0.74524    1.000
    N3286    N        0.56870    0.51045    0.85507    1.000
    Si3287   Si       0.52002    0.26740    0.95544    1.000
    N3288    N        0.52788    0.31132    0.95880    1.000
    N3289    N        0.56980    0.36161    0.95307    1.000
    N3290    N        0.55086    0.31237    0.89946    1.000
    Si3291   Si       0.56519    0.32082    0.93938    1.000
    N3292    N        0.54140    0.40232    0.86917    1.000
    N3293    N        0.54531    0.41456    0.93812    1.000
    Si3294   Si       0.53704    0.45581    0.94525    1.000
    N3295    N        0.54096    0.48493    0.91309    1.000
    Si3296   Si       0.54128    0.38719    0.97377    1.000
    N3297    N        0.57482    0.47156    0.96204    1.000
    Si3298   Si       0.53002    0.50234    0.87450    1.000
    Si3299   Si       0.56726    0.50868    0.93873    1.000
    Si3300   Si       0.52516    0.60415    0.12405    1.000
    N3301    N        0.54499    0.63610    0.09771    1.000
    N3302    N        0.55269    0.70751    0.10404    1.000
    N3303    N        0.53398    0.69754    0.04432    1.000
    Si3304   Si       0.56026    0.70866    0.00976    1.000
    Si3305   Si       0.53085    0.67491    0.08350    1.000
    N3306    N        0.56320    0.74988    0.01914    1.000
    Si3307   Si       0.52903    0.74659    0.05110    1.000
    Si3308   Si       0.52119    0.73269    0.12016    1.000
    N3309    N        0.51950    0.61605    0.16475    1.000
    N3310    N        0.55150    0.56961    0.12816    1.000
    Si3311   Si       0.55161    0.52534    0.13019    1.000
    N3312    N        0.55683    0.60214    0.22345    1.000
    Si3313   Si       0.54181    0.63373    0.19672    1.000
    N3314    N        0.57616    0.65797    0.18722    1.000
    N3315    N        0.54647    0.72011    0.21310    1.000
    Si3316   Si       0.57733    0.68949    0.21803    1.000
    N3317    N        0.54654    0.75708    0.14747    1.000
    Si3318   Si       0.55264    0.54418    0.31975    1.000
    N3319    N        0.55132    0.55418    0.27620    1.000
    N3320    N        0.53545    0.58348    0.33836    1.000
    Si3321   Si       0.52779    0.58118    0.24986    1.000
    Si3322   Si       0.56875    0.67166    0.34574    1.000
    Si3323   Si       0.53118    0.65136    0.27470    1.000
    N3324    N        0.54034    0.66814    0.31525    1.000
    N3325    N        0.53417    0.74944    0.36355    1.000
    N3326    N        0.56606    0.66068    0.25004    1.000
    Si3327   Si       0.57636    0.74224    0.35886    1.000
    Si3328   Si       0.52378    0.57711    0.38032    1.000
    N3329    N        0.54879    0.58974    0.41416    1.000
    N3330    N        0.55246    0.71904    0.44219    1.000
    Si3331   Si       0.57336    0.69060    0.41613    1.000
    Si3332   Si       0.57613    0.75523    0.44068    1.000
    N3333    N        0.54787    0.68805    0.37985    1.000
    Si3334   Si       0.53872    0.66362    0.47375    1.000
    N3335    N        0.56828    0.65429    0.44203    1.000
    N3336    N        0.53867    0.58051    0.51385    1.000
    Si3337   Si       0.53283    0.55947    0.55163    1.000
    N3338    N        0.54451    0.54093    0.61400    1.000
    N3339    N        0.52875    0.51681    0.54555    1.000
    N3340    N        0.55937    0.60664    0.61804    1.000
    Si3341   Si       0.57755    0.56702    0.60304    1.000
    N3342    N        0.57025    0.69859    0.58165    1.000
    Si3343   Si       0.55786    0.70681    0.54175    1.000
    N3344    N        0.56456    0.67589    0.50909    1.000
    Si3345   Si       0.56883    0.72633    0.61563    1.000
    N3346    N        0.52541    0.73564    0.61540    1.000
    N3347    N        0.57541    0.74681    0.53454    1.000
    N3348    N        0.54976    0.60122    0.70463    1.000
    N3349    N        0.55168    0.51020    0.67817    1.000
    N3350    N        0.56601    0.67492    0.71337    1.000
    N3351    N        0.56899    0.74994    0.71104    1.000
    Si3352   Si       0.55154    0.64170    0.68852    1.000
    Si3353   Si       0.55788    0.71218    0.69119    1.000
    N3354    N        0.57918    0.70656    0.65281    1.000
    Si3355   Si       0.54319    0.61057    0.78337    1.000
    Si3356   Si       0.53132    0.57130    0.86061    1.000
    N3357    N        0.53923    0.62863    0.82350    1.000
    N3358    N        0.57543    0.57740    0.85384    1.000
    N3359    N        0.52475    0.51461    0.79826    1.000
    N3360    N        0.51977    0.57993    0.76320    1.000
    N3361    N        0.55920    0.71094    0.77234    1.000
    N3362    N        0.53183    0.64387    0.75800    1.000
    Si3363   Si       0.56413    0.67162    0.75770    1.000
    Si3364   Si       0.52434    0.72282    0.79359    1.000
    N3365    N        0.52311    0.73069    0.83710    1.000
    N3366    N        0.54862    0.61073    0.94702    1.000
    N3367    N        0.55466    0.54008    0.96659    1.000
    Si3368   Si       0.54452    0.58245    0.97988    1.000
    N3369    N        0.51611    0.54225    0.88787    1.000
    Si3370   Si       0.52458    0.70031    0.93654    1.000
    N3371    N        0.55874    0.70013    0.90948    1.000
    Si3372   Si       0.52681    0.70881    0.87454    1.000
    N3373    N        0.52955    0.70675    0.97888    1.000
    N3374    N        0.55453    0.86178    0.03312    1.000
    N3375    N        0.56158    0.84826    0.10315    1.000
    N3376    N        0.55129    0.77416    0.07710    1.000
    Si3377   Si       0.53213    0.85900    0.07024    1.000
    N3378    N        0.55305    0.95845    0.07001    1.000
    N3379    N        0.52894    0.92858    0.02119    1.000
    Si3380   Si       0.56960    0.95273    0.10852    1.000
    Si3381   Si       0.56631    0.95335    0.03022    1.000
    N3382    N        0.55968    0.82673    0.16908    1.000
    Si3383   Si       0.55831    0.86096    0.14548    1.000
    Si3384   Si       0.53282    0.79223    0.16711    1.000
    Si3385   Si       0.55436    0.76155    0.22422    1.000
    Si3386   Si       0.57492    0.88364    0.21487    1.000
    Si3387   Si       0.52681    0.96274    0.16713    1.000
    N3388    N        0.52604    0.00489    0.16164    1.000
    N3389    N        0.55416    0.95457    0.20162    1.000
    N3390    N        0.53332    0.94192    0.13089    1.000
    N3391    N        0.53255    0.89167    0.22724    1.000
    N3392    N        0.56715    0.83535    0.29602    1.000
    N3393    N        0.55827    0.77350    0.26515    1.000
    Si3394   Si       0.53340    0.80762    0.28163    1.000
    Si3395   Si       0.55884    0.87689    0.30513    1.000
    N3396    N        0.55034    0.82530    0.36508    1.000
    Si3397   Si       0.52308    0.79019    0.35892    1.000
    N3398    N        0.55494    0.88795    0.34853    1.000
    N3399    N        0.53900    0.99671    0.30210    1.000
    Si3400   Si       0.53807    0.97461    0.34187    1.000
    N3401    N        0.56973    0.95331    0.35990    1.000
    Si3402   Si       0.51879    0.88264    0.45275    1.000
    N3403    N        0.54581    0.86395    0.42084    1.000
    Si3404   Si       0.53501    0.86344    0.38003    1.000
    N3405    N        0.55133    0.79059    0.43293    1.000
    N3406    N        0.52786    0.87395    0.49516    1.000
    Si3407   Si       0.57253    0.82825    0.43023    1.000
    Si3408   Si       0.55842    0.95636    0.46167    1.000
    N3409    N        0.52772    0.97773    0.48390    1.000
    N3410    N        0.56123    0.98050    0.42392    1.000
    N3411    N        0.53139    0.92463    0.45336    1.000
    Si3412   Si       0.54976    0.78119    0.54252    1.000
    N3413    N        0.54592    0.86636    0.56290    1.000
    N3414    N        0.55166    0.80807    0.50695    1.000
    N3415    N        0.56254    0.80425    0.57773    1.000
    Si3416   Si       0.53956    0.83710    0.59382    1.000
    N3417    N        0.56556    0.92056    0.53934    1.000
    Si3418   Si       0.53228    0.95673    0.55780    1.000
    Si3419   Si       0.52967    0.89494    0.53419    1.000
    N3420    N        0.52238    0.96854    0.60187    1.000
    N3421    N        0.57500    0.97741    0.55413    1.000
    N3422    N        0.56957    0.83439    0.62873    1.000
    N3423    N        0.52837    0.78418    0.66646    1.000
    N3424    N        0.52968    0.80434    0.73142    1.000
    Si3425   Si       0.55521    0.78856    0.70063    1.000
    N3426    N        0.52720    0.84898    0.68148    1.000
    Si3427   Si       0.56953    0.84908    0.66865    1.000
    Si3428   Si       0.54837    0.98627    0.63232    1.000
    N3429    N        0.56603    0.95636    0.65740    1.000
    N3430    N        0.53796    0.91325    0.70486    1.000
    Si3431   Si       0.57490    0.92369    0.68537    1.000
    Si3432   Si       0.52897    0.90706    0.74631    1.000
    N3433    N        0.54470    0.79473    0.84133    1.000
    Si3434   Si       0.53775    0.79720    0.77343    1.000
    Si3435   Si       0.54500    0.83870    0.83532    1.000
    N3436    N        0.52435    0.83299    0.79544    1.000
    N3437    N        0.56335    0.88414    0.83993    1.000
    N3438    N        0.56287    0.90055    0.77180    1.000
    Si3439   Si       0.54800    0.91358    0.81046    1.000
    N3440    N        0.56925    0.97756    0.76650    1.000
    Si3441   Si       0.52650    0.97867    0.75820    1.000
    N3442    N        0.56221    0.95052    0.83103    1.000
    Si3443   Si       0.52834    0.89601    0.86508    1.000
    N3444    N        0.56328    0.76466    0.94767    1.000
    N3445    N        0.54753    0.81350    0.98364    1.000
    Si3446   Si       0.53211    0.79419    0.94873    1.000
    N3447    N        0.53736    0.81662    0.91415    1.000
    Si3448   Si       0.57126    0.84317    0.90554    1.000
    Si3449   Si       0.54170    0.85679    0.99263    1.000
    Si3450   Si       0.57479    0.77771    0.98857    1.000
    N3451    N        0.54841    0.88083    0.90504    1.000
    N3452    N        0.56806    0.88043    0.96838    1.000
    N3453    N        0.57252    0.99910    0.88224    1.000
    N3454    N        0.56857    0.97932    0.99550    1.000
    Si3455   Si       0.55648    0.91128    0.93596    1.000
    N3456    N        0.53222    0.00283    0.93549    1.000
    N3457    N        0.52281    0.93720    0.87944    1.000
    Si3458   Si       0.53266    0.97763    0.97074    1.000
    Si3459   Si       0.56324    0.95587    0.87700    1.000
    N3460    N        0.52672    0.93699    0.95497    1.000
    Si3461   Si       0.61978    0.07260    0.03642    1.000
    N3462    N        0.62790    0.10896    0.05541    1.000
    N3463    N        0.57835    0.05688    0.04597    1.000
    Si3464   Si       0.59607    0.13449    0.06787    1.000
    N3465    N        0.59952    0.16735    0.09602    1.000
    N3466    N        0.58245    0.15358    0.03183    1.000
    Si3467   Si       0.60795    0.17189    0.00121    1.000
    Si3468   Si       0.58281    0.25291    0.99804    1.000
    N3469    N        0.59719    0.02026    0.17922    1.000
    Si3470   Si       0.59304    0.09276    0.12589    1.000
    N3471    N        0.60217    0.10477    0.23580    1.000
    N3472    N        0.60351    0.11316    0.16195    1.000
    Si3473   Si       0.60959    0.02256    0.22057    1.000
    Si3474   Si       0.60391    0.13286    0.20093    1.000
    Si3475   Si       0.62540    0.18426    0.12509    1.000
    N3476    N        0.59687    0.20308    0.15343    1.000
    N3477    N        0.63376    0.16060    0.21615    1.000
    Si3478   Si       0.61294    0.24096    0.16812    1.000
    Si3479   Si       0.61806    0.20042    0.22600    1.000
    Si3480   Si       0.61535    0.06566    0.33179    1.000
    N3481    N        0.61705    0.09689    0.30365    1.000
    Si3482   Si       0.58910    0.11448    0.27542    1.000
    N3483    N        0.58128    0.03954    0.32750    1.000
    Si3484   Si       0.57705    0.01347    0.29098    1.000
    N3485    N        0.57789    0.03293    0.25026    1.000
    Si3486   Si       0.58913    0.25353    0.32251    1.000
    N3487    N        0.59981    0.20980    0.32149    1.000
    Si3488   Si       0.62087    0.18179    0.29637    1.000
    N3489    N        0.58700    0.15807    0.27832    1.000
    N3490    N        0.63124    0.21001    0.26446    1.000
    N3491    N        0.62430    0.07259    0.37385    1.000
    N3492    N        0.62398    0.09241    0.43619    1.000
    Si3493   Si       0.60916    0.03971    0.39989    1.000
    Si3494   Si       0.58738    0.11223    0.45060    1.000
    N3495    N        0.61379    0.13729    0.37885    1.000
    N3496    N        0.60105    0.21126    0.46083    1.000
    Si3497   Si       0.63227    0.17440    0.39292    1.000
    Si3498   Si       0.62221    0.17310    0.47091    1.000
    Si3499   Si       0.58535    0.22299    0.42257    1.000
    N3500    N        0.59983    0.20295    0.38855    1.000
    N3501    N        0.59863    0.13868    0.48357    1.000
    Si3502   Si       0.62453    0.24788    0.46288    1.000
    N3503    N        0.60000    0.03949    0.57139    1.000
    Si3504   Si       0.61651    0.06732    0.54076    1.000
    N3505    N        0.58173    0.09160    0.53299    1.000
    Si3506   Si       0.59444    0.04867    0.61500    1.000
    N3507    N        0.62729    0.04848    0.50051    1.000
    Si3508   Si       0.60355    0.12939    0.52680    1.000
    N3509    N        0.61338    0.13562    0.61302    1.000
    N3510    N        0.60585    0.16591    0.55220    1.000
    Si3511   Si       0.61101    0.17784    0.59528    1.000
    N3512    N        0.62826    0.23147    0.54376    1.000
    Si3513   Si       0.60582    0.08975    0.72776    1.000
    Si3514   Si       0.62000    0.02749    0.71217    1.000
    N3515    N        0.63336    0.06484    0.62544    1.000
    Si3516   Si       0.62946    0.16303    0.73055    1.000
    N3517    N        0.61339    0.16603    0.69005    1.000
    N3518    N        0.61975    0.23649    0.68173    1.000
    Si3519   Si       0.60067    0.24238    0.64115    1.000
    N3520    N        0.62341    0.20773    0.62499    1.000
    Si3521   Si       0.59471    0.05035    0.79331    1.000
    Si3522   Si       0.61352    0.12172    0.79464    1.000
    N3523    N        0.58395    0.09225    0.80283    1.000
    N3524    N        0.62003    0.12346    0.75063    1.000
    N3525    N        0.59648    0.05142    0.74832    1.000
    N3526    N        0.60363    0.15738    0.81654    1.000
    N3527    N        0.61290    0.23216    0.80954    1.000
    Si3528   Si       0.59339    0.19654    0.79789    1.000
    N3529    N        0.60510    0.19232    0.75611    1.000
    Si3530   Si       0.63116    0.15473    0.85121    1.000
    Si3531   Si       0.62842    0.26098    0.84126    1.000
    Si3532   Si       0.63246    0.11684    0.97558    1.000
    Si3533   Si       0.57783    0.09790    0.91220    1.000
    N3534    N        0.59502    0.02795    0.95231    1.000
    N3535    N        0.62034    0.08936    0.92938    1.000
    Si3536   Si       0.62839    0.05589    0.95542    1.000
    N3537    N        0.62712    0.07810    0.99362    1.000
    N3538    N        0.60218    0.21369    0.98858    1.000
    N3539    N        0.60093    0.14506    0.96651    1.000
    N3540    N        0.61630    0.18590    0.87720    1.000
    N3541    N        0.61604    0.23860    0.91982    1.000
    Si3542   Si       0.58608    0.22163    0.94691    1.000
    Si3543   Si       0.59622    0.33874    0.09204    1.000
    N3544    N        0.61456    0.28336    0.00557    1.000
    N3545    N        0.62939    0.33410    0.06487    1.000
    N3546    N        0.62006    0.26342    0.07054    1.000
    Si3547   Si       0.63329    0.29431    0.04381    1.000
    N3548    N        0.62100    0.35088    0.00211    1.000
    N3549    N        0.62454    0.42304    0.10477    1.000
    Si3550   Si       0.60077    0.41457    0.07214    1.000
    Si3551   Si       0.58487    0.49010    0.06735    1.000
    N3552    N        0.62736    0.40347    0.03622    1.000
    N3553    N        0.62415    0.50128    0.08359    1.000
    Si3554   Si       0.60067    0.38950    0.00071    1.000
    N3555    N        0.63141    0.46888    0.00221    1.000
    N3556    N        0.58167    0.26071    0.19070    1.000
    N3557    N        0.62837    0.27207    0.14067    1.000
    Si3558   Si       0.58679    0.30434    0.20417    1.000
    N3559    N        0.61108    0.34452    0.13389    1.000
    N3560    N        0.62506    0.31953    0.19398    1.000
    N3561    N        0.61339    0.37982    0.23111    1.000
    Si3562   Si       0.63453    0.31423    0.15191    1.000
    N3563    N        0.61040    0.50230    0.21806    1.000
    Si3564   Si       0.60626    0.50032    0.17507    1.000
    N3565    N        0.62894    0.42361    0.17999    1.000
    Si3566   Si       0.58664    0.42987    0.18670    1.000
    N3567    N        0.58182    0.43567    0.22874    1.000
    Si3568   Si       0.61227    0.30554    0.27699    1.000
    N3569    N        0.60486    0.28428    0.35492    1.000
    N3570    N        0.61000    0.33607    0.30925    1.000
    N3571    N        0.62633    0.27100    0.29892    1.000
    Si3572   Si       0.62669    0.37406    0.32199    1.000
    N3573    N        0.62579    0.37679    0.36468    1.000
    Si3574   Si       0.57750    0.31409    0.33259    1.000
    N3575    N        0.58219    0.30840    0.24705    1.000
    N3576    N        0.60684    0.40604    0.29489    1.000
    Si3577   Si       0.59879    0.49095    0.31615    1.000
    N3578    N        0.58446    0.47137    0.35331    1.000
    Si3579   Si       0.58499    0.39905    0.25620    1.000
    Si3580   Si       0.62972    0.46367    0.36147    1.000
    N3581    N        0.63666    0.46635    0.31773    1.000
    N3582    N        0.61452    0.32884    0.40755    1.000
    Si3583   Si       0.59776    0.29197    0.39606    1.000
    Si3584   Si       0.60154    0.34874    0.44369    1.000
    N3585    N        0.60358    0.27221    0.49268    1.000
    N3586    N        0.61001    0.25971    0.42473    1.000
    N3587    N        0.62805    0.43674    0.39372    1.000
    Si3588   Si       0.60310    0.40212    0.39221    1.000
    N3589    N        0.59050    0.38899    0.43324    1.000
    N3590    N        0.60708    0.47933    0.44738    1.000
    N3591    N        0.60622    0.34694    0.58472    1.000
    Si3592   Si       0.61667    0.27093    0.53491    1.000
    N3593    N        0.58720    0.33307    0.52059    1.000
    Si3594   Si       0.63200    0.33697    0.51269    1.000
    N3595    N        0.58083    0.27905    0.55876    1.000
    Si3596   Si       0.57872    0.32294    0.56217    1.000
    N3597    N        0.63487    0.37631    0.52821    1.000
    Si3598   Si       0.61753    0.38631    0.56806    1.000
    N3599    N        0.59742    0.48595    0.55080    1.000
    Si3600   Si       0.60019    0.44839    0.52521    1.000
    N3601    N        0.58764    0.41780    0.55526    1.000
    Si3602   Si       0.62140    0.50270    0.58229    1.000
    N3603    N        0.61719    0.40077    0.61921    1.000
    Si3604   Si       0.61863    0.35682    0.62643    1.000
    N3605    N        0.61125    0.36397    0.72234    1.000
    N3606    N        0.60982    0.29302    0.72424    1.000
    N3607    N        0.60912    0.28588    0.63895    1.000
    N3608    N        0.59091    0.34889    0.65812    1.000
    Si3609   Si       0.58064    0.37416    0.69256    1.000
    N3610    N        0.57608    0.46359    0.63368    1.000
    Si3611   Si       0.57876    0.41738    0.63378    1.000
    N3612    N        0.58877    0.47433    0.71851    1.000
    N3613    N        0.58327    0.41336    0.67734    1.000
    Si3614   Si       0.60856    0.43974    0.70081    1.000
    Si3615   Si       0.61840    0.47828    0.64333    1.000
    N3616    N        0.61177    0.33477    0.78448    1.000
    N3617    N        0.58650    0.34857    0.84917    1.000
    Si3618   Si       0.62907    0.36941    0.80624    1.000
    N3619    N        0.60955    0.28558    0.87122    1.000
    Si3620   Si       0.62633    0.32867    0.74330    1.000
    Si3621   Si       0.58146    0.39053    0.85595    1.000
    Si3622   Si       0.59662    0.43261    0.78734    1.000
    N3623    N        0.60158    0.40369    0.81986    1.000
    N3624    N        0.62083    0.46485    0.86655    1.000
    N3625    N        0.60585    0.30654    0.94130    1.000
    Si3626   Si       0.62701    0.31581    0.97764    1.000
    Si3627   Si       0.62174    0.28023    0.91303    1.000
    Si3628   Si       0.61513    0.45514    0.96406    1.000
    Si3629   Si       0.63484    0.43176    0.89328    1.000
    N3630    N        0.61245    0.41068    0.96633    1.000
    Si3631   Si       0.60488    0.50577    0.87668    1.000
    N3632    N        0.60368    0.40168    0.89453    1.000
    Si3633   Si       0.58736    0.39615    0.93387    1.000
    Si3634   Si       0.61245    0.60180    0.02463    1.000
    N3635    N        0.60459    0.59524    0.10039    1.000
    N3636    N        0.58053    0.58259    0.00421    1.000
    N3637    N        0.58152    0.51604    0.03233    1.000
    N3638    N        0.63375    0.63128    0.99935    1.000
    Si3639   Si       0.58698    0.63216    0.08880    1.000
    N3640    N        0.59600    0.63728    0.04814    1.000
    Si3641   Si       0.61910    0.66396    0.02327    1.000
    Si3642   Si       0.59389    0.70503    0.11050    1.000
    N3643    N        0.60782    0.66463    0.11006    1.000
    N3644    N        0.61420    0.73377    0.08424    1.000
    Si3645   Si       0.63304    0.51881    0.12195    1.000
    Si3646   Si       0.59707    0.57406    0.13782    1.000
    N3647    N        0.61700    0.60004    0.16845    1.000
    N3648    N        0.59340    0.53061    0.14594    1.000
    Si3649   Si       0.58758    0.62404    0.24673    1.000
    N3650    N        0.61632    0.70723    0.21527    1.000
    N3651    N        0.62443    0.63629    0.22806    1.000
    Si3652   Si       0.63586    0.70498    0.17675    1.000
    Si3653   Si       0.61635    0.63909    0.18531    1.000
    N3654    N        0.60443    0.71950    0.15120    1.000
    N3655    N        0.59659    0.53513    0.31736    1.000
    Si3656   Si       0.59569    0.56181    0.28137    1.000
    N3657    N        0.59406    0.60539    0.28535    1.000
    Si3658   Si       0.61656    0.62553    0.31664    1.000
    N3659    N        0.63279    0.55646    0.26005    1.000
    N3660    N        0.59948    0.64061    0.35146    1.000
    N3661    N        0.59472    0.70728    0.33859    1.000
    N3662    N        0.61880    0.73110    0.28158    1.000
    Si3663   Si       0.62878    0.70069    0.31436    1.000
    N3664    N        0.63093    0.66194    0.29562    1.000
    Si3665   Si       0.57872    0.61099    0.43557    1.000
    N3666    N        0.62334    0.54328    0.43827    1.000
    Si3667   Si       0.61374    0.51761    0.47034    1.000
    N3668    N        0.59074    0.59632    0.47543    1.000
    N3669    N        0.61733    0.61102    0.41499    1.000
    Si3670   Si       0.63439    0.60216    0.48576    1.000
    N3671    N        0.59396    0.74900    0.39679    1.000
    N3672    N        0.63375    0.64397    0.49069    1.000
    N3673    N        0.60887    0.75525    0.46930    1.000
    Si3674   Si       0.62298    0.64338    0.38802    1.000
    N3675    N        0.61594    0.68369    0.40513    1.000
    Si3676   Si       0.61906    0.59723    0.56272    1.000
    N3677    N        0.61929    0.58742    0.60520    1.000
    N3678    N        0.62814    0.57881    0.52109    1.000
    N3679    N        0.60382    0.52301    0.61721    1.000
    Si3680   Si       0.58210    0.57324    0.51284    1.000
    N3681    N        0.59278    0.63146    0.55371    1.000
    N3682    N        0.58591    0.53081    0.50047    1.000
    N3683    N        0.57724    0.56584    0.55933    1.000
    Si3684   Si       0.60150    0.65375    0.51822    1.000
    Si3685   Si       0.60124    0.66638    0.58038    1.000
    N3686    N        0.62373    0.68278    0.54572    1.000
    N3687    N        0.61497    0.65520    0.61957    1.000
    Si3688   Si       0.59119    0.58863    0.70133    1.000
    Si3689   Si       0.59809    0.61543    0.63565    1.000
    N3690    N        0.59013    0.55107    0.72582    1.000
    N3691    N        0.59657    0.57536    0.66059    1.000
    Si3692   Si       0.62534    0.54773    0.64561    1.000
    N3693    N        0.62475    0.61252    0.71886    1.000
    Si3694   Si       0.58958    0.51468    0.70207    1.000
    N3695    N        0.62472    0.51155    0.67495    1.000
    Si3696   Si       0.60940    0.65376    0.71200    1.000
    N3697    N        0.62452    0.73037    0.74231    1.000
    N3698    N        0.63403    0.68427    0.69273    1.000
    Si3699   Si       0.61763    0.68512    0.65227    1.000
    N3700    N        0.59189    0.63815    0.67415    1.000
    Si3701   Si       0.60926    0.55556    0.83885    1.000
    Si3702   Si       0.60513    0.56157    0.76488    1.000
    N3703    N        0.59271    0.53809    0.79923    1.000
    N3704    N        0.58599    0.60007    0.77581    1.000
    Si3705   Si       0.61825    0.62715    0.78507    1.000
    N3706    N        0.63764    0.52892    0.85971    1.000
    N3707    N        0.63850    0.57985    0.81874    1.000
    Si3708   Si       0.57593    0.61973    0.84746    1.000
    Si3709   Si       0.63451    0.69832    0.77231    1.000
    N3710    N        0.60438    0.64122    0.82354    1.000
    Si3711   Si       0.61801    0.73005    0.85396    1.000
    N3712    N        0.62672    0.70812    0.81473    1.000
    N3713    N        0.61017    0.66372    0.75850    1.000
    Si3714   Si       0.63270    0.67084    0.83687    1.000
    Si3715   Si       0.58244    0.74410    0.75084    1.000
    Si3716   Si       0.63083    0.55053    0.93888    1.000
    Si3717   Si       0.58615    0.61793    0.92878    1.000
    N3718    N        0.61950    0.59147    0.94157    1.000
    N3719    N        0.60191    0.52296    0.91679    1.000
    N3720    N        0.62843    0.53585    0.97956    1.000
    N3721    N        0.58118    0.63332    0.88792    1.000
    Si3722   Si       0.58883    0.53871    0.99682    1.000
    N3723    N        0.59655    0.69083    0.99610    1.000
    N3724    N        0.62073    0.72806    0.93985    1.000
    Si3725   Si       0.62270    0.68973    0.96081    1.000
    Si3726   Si       0.58334    0.73858    0.91878    1.000
    Si3727   Si       0.59190    0.67239    0.90305    1.000
    N3728    N        0.61619    0.69040    0.87319    1.000
    N3729    N        0.61137    0.65483    0.93791    1.000
    N3730    N        0.58960    0.75226    0.87836    1.000
    N3731    N        0.60983    0.80455    0.05946    1.000
    Si3732   Si       0.60325    0.84044    0.08971    1.000
    Si3733   Si       0.59454    0.77313    0.08401    1.000
    Si3734   Si       0.62734    0.81149    0.02092    1.000
    N3735    N        0.61414    0.87461    0.06353    1.000
    Si3736   Si       0.59322    0.87840    0.02541    1.000
    N3737    N        0.61523    0.84968    0.00127    1.000
    N3738    N        0.63575    0.84431    0.11626    1.000
    N3739    N        0.60373    0.78685    0.12660    1.000
    N3740    N        0.59741    0.92277    0.03091    1.000
    Si3741   Si       0.62152    0.91753    0.07153    1.000
    N3742    N        0.60021    0.92109    0.11322    1.000
    N3743    N        0.63279    0.96240    0.06763    1.000
    Si3744   Si       0.59544    0.81704    0.19579    1.000
    N3745    N        0.58782    0.84402    0.22850    1.000
    N3746    N        0.58797    0.77474    0.19713    1.000
    Si3747   Si       0.59040    0.75874    0.15706    1.000
    N3748    N        0.61784    0.95392    0.17026    1.000
    N3749    N        0.60196    0.91546    0.23194    1.000
    Si3750   Si       0.61443    0.91472    0.15185    1.000
    N3751    N        0.58301    0.88935    0.17128    1.000
    N3752    N        0.58121    0.98909    0.12611    1.000
    Si3753   Si       0.59584    0.95255    0.20930    1.000
    Si3754   Si       0.61832    0.99226    0.14897    1.000
    N3755    N        0.62200    0.98119    0.23008    1.000
    N3756    N        0.61851    0.83603    0.34262    1.000
    N3757    N        0.62048    0.79879    0.27644    1.000
    Si3758   Si       0.60281    0.83755    0.26919    1.000
    Si3759   Si       0.59371    0.76502    0.28951    1.000
    N3760    N        0.58537    0.77525    0.33152    1.000
    N3761    N        0.63085    0.86949    0.27764    1.000
    Si3762   Si       0.57995    0.81887    0.33590    1.000
    Si3763   Si       0.61734    0.90769    0.27116    1.000
    N3764    N        0.61039    0.98776    0.29738    1.000
    Si3765   Si       0.58787    0.91845    0.34492    1.000
    N3766    N        0.58609    0.91114    0.30098    1.000
    N3767    N        0.62933    0.91793    0.35386    1.000
    Si3768   Si       0.62744    0.00097    0.33524    1.000
    N3769    N        0.59440    0.84177    0.46431    1.000
    N3770    N        0.60718    0.81594    0.40513    1.000
    Si3771   Si       0.62633    0.77875    0.39645    1.000
    Si3772   Si       0.62933    0.86423    0.44795    1.000
    N3773    N        0.62246    0.87865    0.40720    1.000
    Si3774   Si       0.63502    0.84196    0.38191    1.000
    Si3775   Si       0.59259    0.96944    0.39541    1.000
    N3776    N        0.59475    0.95347    0.48434    1.000
    N3777    N        0.61386    0.00236    0.37582    1.000
    N3778    N        0.62576    0.95033    0.41723    1.000
    Si3779   Si       0.63249    0.94218    0.46065    1.000
    N3780    N        0.62088    0.80305    0.51853    1.000
    N3781    N        0.60477    0.86427    0.52722    1.000
    Si3782   Si       0.59607    0.80602    0.60793    1.000
    Si3783   Si       0.58824    0.83045    0.50694    1.000
    N3784    N        0.62654    0.82776    0.58365    1.000
    N3785    N        0.60058    0.75823    0.61002    1.000
    Si3786   Si       0.61158    0.76043    0.51292    1.000
    Si3787   Si       0.58737    0.88569    0.55950    1.000
    N3788    N        0.63315    0.92700    0.53665    1.000
    N3789    N        0.60012    0.89936    0.59618    1.000
    Si3790   Si       0.59465    0.94955    0.52767    1.000
    Si3791   Si       0.63665    0.88991    0.51509    1.000
    N3792    N        0.63158    0.80488    0.63934    1.000
    N3793    N        0.58766    0.81737    0.69279    1.000
    Si3794   Si       0.62884    0.80525    0.68249    1.000
    N3795    N        0.62781    0.87668    0.74440    1.000
    Si3796   Si       0.63796    0.75792    0.63436    1.000
    N3797    N        0.60520    0.93609    0.71465    1.000
    N3798    N        0.62752    0.94471    0.64278    1.000
    N3799    N        0.63481    0.99323    0.73706    1.000
    Si3800   Si       0.59724    0.97348    0.73361    1.000
    Si3801   Si       0.60389    0.97969    0.66090    1.000
    Si3802   Si       0.61878    0.90203    0.63561    1.000
    N3803    N        0.58142    0.00164    0.70087    1.000
    N3804    N        0.58908    0.88960    0.66550    1.000
    N3805    N        0.58599    0.00891    0.62848    1.000
    Si3806   Si       0.61348    0.80084    0.79069    1.000
    N3807    N        0.61853    0.78509    0.83070    1.000
    Si3808   Si       0.60519    0.86650    0.83922    1.000
    N3809    N        0.59720    0.84084    0.80176    1.000
    Si3810   Si       0.59932    0.87693    0.77731    1.000
    Si3811   Si       0.58383    0.79038    0.85634    1.000
    N3812    N        0.58642    0.83349    0.86569    1.000
    N3813    N        0.58028    0.78402    0.77059    1.000
    N3814    N        0.62247    0.97003    0.80769    1.000
    N3815    N        0.62069    0.89761    0.80960    1.000
    Si3816   Si       0.58120    0.98250    0.81005    1.000
    N3817    N        0.60860    0.84538    0.92357    1.000
    Si3818   Si       0.60865    0.86841    0.96179    1.000
    N3819    N        0.61678    0.78359    0.98827    1.000
    Si3820   Si       0.62538    0.93808    0.92811    1.000
    Si3821   Si       0.60450    0.99435    0.97767    1.000
    N3822    N        0.58365    0.93821    0.91128    1.000
    N3823    N        0.63153    0.90358    0.95419    1.000
    Si3824   Si       0.65208    0.04615    0.09987    1.000
    N3825    N        0.64608    0.04286    0.05661    1.000
    Si3826   Si       0.69125    0.05954    0.04949    1.000
    Si3827   Si       0.66402    0.13250    0.04510    1.000
    N3828    N        0.63627    0.08256    0.12106    1.000
    N3829    N        0.64723    0.14813    0.00812    1.000
    Si3830   Si       0.68695    0.19963    0.08910    1.000
    N3831    N        0.64999    0.21394    0.10562    1.000
    N3832    N        0.68370    0.16683    0.06053    1.000
    Si3833   Si       0.64450    0.25676    0.10444    1.000
    N3834    N        0.64825    0.00988    0.12310    1.000
    Si3835   Si       0.64035    0.08559    0.22996    1.000
    Si3836   Si       0.64937    0.11126    0.15305    1.000
    Si3837   Si       0.68360    0.03870    0.19634    1.000
    N3838    N        0.64804    0.04438    0.22089    1.000
    N3839    N        0.65539    0.10672    0.19749    1.000
    N3840    N        0.69374    0.11337    0.13860    1.000
    Si3841   Si       0.67466    0.14275    0.21891    1.000
    N3842    N        0.65279    0.15523    0.14380    1.000
    Si3843   Si       0.67920    0.24218    0.20929    1.000
    N3844    N        0.64130    0.22487    0.19849    1.000
    N3845    N        0.64673    0.03751    0.32101    1.000
    Si3846   Si       0.65720    0.11204    0.29830    1.000
    N3847    N        0.67104    0.09642    0.25947    1.000
    N3848    N        0.68504    0.09169    0.32237    1.000
    Si3849   Si       0.68727    0.04856    0.31957    1.000
    Si3850   Si       0.67973    0.21790    0.35502    1.000
    Si3851   Si       0.65333    0.24071    0.28336    1.000
    N3852    N        0.65294    0.15541    0.30234    1.000
    N3853    N        0.67313    0.21403    0.31254    1.000
    Si3854   Si       0.69226    0.17672    0.29637    1.000
    N3855    N        0.66716    0.25674    0.36848    1.000
    N3856    N        0.67277    0.26053    0.24848    1.000
    N3857    N        0.69663    0.16363    0.25308    1.000
    Si3858   Si       0.63897    0.10703    0.39742    1.000
    Si3859   Si       0.64066    0.06188    0.46059    1.000
    N3860    N        0.68286    0.07361    0.46204    1.000
    N3861    N        0.68062    0.12130    0.40313    1.000
    N3862    N        0.63616    0.02722    0.43237    1.000
    N3863    N        0.66865    0.23770    0.46767    1.000
    Si3864   Si       0.68884    0.16330    0.41678    1.000
    Si3865   Si       0.68613    0.20313    0.48702    1.000
    N3866    N        0.67151    0.18547    0.38135    1.000
    N3867    N        0.64241    0.16803    0.43421    1.000
    N3868    N        0.65931    0.04917    0.55535    1.000
    Si3869   Si       0.67462    0.08968    0.55351    1.000
    N3870    N        0.67924    0.10456    0.59454    1.000
    Si3871   Si       0.65918    0.02404    0.51693    1.000
    Si3872   Si       0.64027    0.01572    0.57651    1.000
    N3873    N        0.63887    0.10741    0.53959    1.000
    N3874    N        0.66300    0.18645    0.57650    1.000
    N3875    N        0.65082    0.18095    0.50146    1.000
    Si3876   Si       0.66807    0.21566    0.61445    1.000
    Si3877   Si       0.63933    0.19148    0.53998    1.000
    Si3878   Si       0.64592    0.10800    0.62342    1.000
    Si3879   Si       0.67265    0.08349    0.68900    1.000
    N3880    N        0.67105    0.11405    0.65933    1.000
    Si3881   Si       0.65630    0.03243    0.64422    1.000
    N3882    N        0.69087    0.04932    0.66332    1.000
    N3883    N        0.63523    0.06866    0.70340    1.000
    N3884    N        0.63606    0.00736    0.67440    1.000
    N3885    N        0.67054    0.17360    0.73236    1.000
    N3886    N        0.67737    0.20366    0.65826    1.000
    N3887    N        0.65113    0.24702    0.74047    1.000
    Si3888   Si       0.63625    0.19573    0.66691    1.000
    Si3889   Si       0.66869    0.07092    0.80830    1.000
    N3890    N        0.65336    0.11024    0.80844    1.000
    N3891    N        0.69073    0.06480    0.84611    1.000
    N3892    N        0.63592    0.04279    0.80631    1.000
    Si3893   Si       0.68073    0.21395    0.74482    1.000
    Si3894   Si       0.68555    0.13705    0.81666    1.000
    N3895    N        0.66429    0.23871    0.85963    1.000
    N3896    N        0.66349    0.17376    0.82901    1.000
    Si3897   Si       0.68268    0.21181    0.82873    1.000
    N3898    N        0.68037    0.22510    0.78797    1.000
    Si3899   Si       0.64466    0.25166    0.78344    1.000
    N3900    N        0.64904    0.12763    0.87723    1.000
    Si3901   Si       0.65870    0.11057    0.91396    1.000
    N3902    N        0.66541    0.03387    0.94861    1.000
    N3903    N        0.69145    0.08456    0.90809    1.000
    N3904    N        0.66662    0.12981    0.95208    1.000
    Si3905   Si       0.67921    0.15945    0.98050    1.000
    N3906    N        0.68579    0.20225    0.99041    1.000
    N3907    N        0.67332    0.20148    0.91864    1.000
    Si3908   Si       0.64258    0.21476    0.89343    1.000
    N3909    N        0.67662    0.29130    0.03480    1.000
    Si3910   Si       0.64647    0.36303    0.03816    1.000
    N3911    N        0.68344    0.27325    0.10266    1.000
    N3912    N        0.68615    0.35959    0.01929    1.000
    Si3913   Si       0.69400    0.31978    0.00567    1.000
    N3914    N        0.66654    0.45354    0.05890    1.000
    Si3915   Si       0.66480    0.49476    0.06719    1.000
    Si3916   Si       0.66646    0.42552    0.09091    1.000
    Si3917   Si       0.65352    0.43540    0.01982    1.000
    N3918    N        0.68615    0.50595    0.10389    1.000
    N3919    N        0.67017    0.37136    0.20327    1.000
    N3920    N        0.67643    0.32603    0.15197    1.000
    Si3921   Si       0.64047    0.34675    0.22397    1.000
    Si3922   Si       0.64669    0.40619    0.21653    1.000
    N3923    N        0.67820    0.50303    0.24530    1.000
    N3924    N        0.64125    0.48508    0.14929    1.000
    Si3925   Si       0.68716    0.48041    0.13976    1.000
    N3926    N        0.68007    0.43998    0.12934    1.000
    Si3927   Si       0.63724    0.44019    0.14232    1.000
    Si3928   Si       0.68244    0.29622    0.26940    1.000
    N3929    N        0.64958    0.32320    0.25924    1.000
    Si3930   Si       0.64791    0.28591    0.33725    1.000
    N3931    N        0.66595    0.31837    0.36546    1.000
    N3932    N        0.68680    0.28330    0.31106    1.000
    Si3933   Si       0.64235    0.43092    0.29219    1.000
    N3934    N        0.66559    0.39865    0.31487    1.000
    Si3935   Si       0.68799    0.46086    0.24833    1.000
    N3936    N        0.65564    0.43163    0.25011    1.000
    Si3937   Si       0.64918    0.34964    0.39031    1.000
    N3938    N        0.68647    0.29470    0.43391    1.000
    Si3939   Si       0.68747    0.28839    0.39150    1.000
    N3940    N        0.68052    0.36141    0.42048    1.000
    Si3941   Si       0.67582    0.33076    0.45311    1.000
    N3942    N        0.63597    0.33933    0.46986    1.000
    Si3943   Si       0.66939    0.47070    0.49130    1.000
    N3944    N        0.65193    0.49610    0.38554    1.000
    Si3945   Si       0.64015    0.47031    0.42126    1.000
    N3946    N        0.67576    0.46830    0.44562    1.000
    N3947    N        0.64591    0.30306    0.53604    1.000
    Si3948   Si       0.68894    0.31001    0.53611    1.000
    N3949    N        0.67212    0.26059    0.61404    1.000
    Si3950   Si       0.66186    0.40929    0.52542    1.000
    N3951    N        0.65358    0.41486    0.56834    1.000
    Si3952   Si       0.64925    0.42914    0.60759    1.000
    N3953    N        0.63846    0.47252    0.60716    1.000
    N3954    N        0.63994    0.44403    0.50862    1.000
    N3955    N        0.65626    0.33704    0.63704    1.000
    N3956    N        0.66452    0.29288    0.67942    1.000
    Si3957   Si       0.65181    0.29333    0.63681    1.000
    Si3958   Si       0.67545    0.33918    0.68056    1.000
    N3959    N        0.66732    0.33639    0.72941    1.000
    Si3960   Si       0.63840    0.26843    0.70563    1.000
    N3961    N        0.66973    0.38290    0.68623    1.000
    Si3962   Si       0.65238    0.38222    0.72735    1.000
    N3963    N        0.64028    0.42545    0.72528    1.000
    Si3964   Si       0.67457    0.42290    0.67149    1.000
    N3965    N        0.66389    0.48994    0.73021    1.000
    N3966    N        0.69186    0.50883    0.66062    1.000
    Si3967   Si       0.66307    0.48684    0.68769    1.000
    N3968    N        0.63973    0.45139    0.66804    1.000
    N3969    N        0.68592    0.42104    0.62896    1.000
    Si3970   Si       0.67369    0.31927    0.82319    1.000
    N3971    N        0.66166    0.35902    0.83318    1.000
    N3972    N        0.65020    0.28526    0.81109    1.000
    N3973    N        0.65660    0.38277    0.77413    1.000
    Si3974   Si       0.68931    0.38809    0.85049    1.000
    N3975    N        0.67842    0.48176    0.83230    1.000
    Si3976   Si       0.64730    0.45276    0.83323    1.000
    N3977    N        0.66171    0.41882    0.86140    1.000
    Si3978   Si       0.66006    0.45349    0.75259    1.000
    N3979    N        0.63802    0.44859    0.78919    1.000
    Si3980   Si       0.69099    0.26834    0.87723    1.000
    N3981    N        0.66586    0.28240    0.90864    1.000
    N3982    N        0.67030    0.31295    0.96984    1.000
    Si3983   Si       0.69298    0.29078    0.94076    1.000
    N3984    N        0.68351    0.49031    0.96960    1.000
    N3985    N        0.68168    0.42300    0.99077    1.000
    N3986    N        0.64615    0.45207    0.93035    1.000
    Si3987   Si       0.68538    0.45011    0.95329    1.000
    Si3988   Si       0.65333    0.50545    0.99662    1.000
    Si3989   Si       0.68098    0.56201    0.03824    1.000
    N3990    N        0.67293    0.52040    0.03354    1.000
    N3991    N        0.66777    0.62901    0.09894    1.000
    N3992    N        0.64348    0.58311    0.04877    1.000
    Si3993   Si       0.64847    0.58984    0.09427    1.000
    N3994    N        0.69613    0.57143    0.07919    1.000
    Si3995   Si       0.65260    0.72036    0.07313    1.000
    N3996    N        0.66786    0.69984    0.10743    1.000
    N3997    N        0.65093    0.68791    0.04083    1.000
    Si3998   Si       0.67631    0.69719    0.00555    1.000
    N3999    N        0.68091    0.75339    0.06340    1.000
    Si4000   Si       0.65064    0.66228    0.12243    1.000
    N4001    N        0.64594    0.56000    0.12749    1.000
    N4002    N        0.65977    0.54886    0.19376    1.000
    N4003    N        0.68697    0.60998    0.17254    1.000
    Si4004   Si       0.64496    0.52832    0.22924    1.000
    Si4005   Si       0.65554    0.58053    0.16605    1.000
    Si4006   Si       0.69660    0.71303    0.13847    1.000
    Si4007   Si       0.69096    0.65115    0.18020    1.000
    N4008    N        0.67310    0.72703    0.17390    1.000
    N4009    N        0.66480    0.75697    0.23720    1.000
    N4010    N        0.64805    0.66220    0.16661    1.000
    Si4011   Si       0.64033    0.72235    0.24689    1.000
    Si4012   Si       0.69237    0.74973    0.20498    1.000
    Si4013   Si       0.67477    0.59955    0.35459    1.000
    Si4014   Si       0.66377    0.58128    0.27848    1.000
    N4015    N        0.68119    0.61882    0.26584    1.000
    N4016    N        0.64851    0.59381    0.31985    1.000
    N4017    N        0.66701    0.70444    0.33482    1.000
    Si4018   Si       0.68627    0.67495    0.36150    1.000
    Si4019   Si       0.65135    0.65377    0.25812    1.000
    N4020    N        0.66221    0.63835    0.36583    1.000
    Si4021   Si       0.69520    0.74092    0.32470    1.000
    N4022    N        0.67114    0.69246    0.25019    1.000
    Si4023   Si       0.67810    0.52982    0.38162    1.000
    N4024    N        0.66511    0.56924    0.38728    1.000
    N4025    N        0.66662    0.58982    0.45931    1.000
    Si4026   Si       0.64365    0.57777    0.42434    1.000
    N4027    N        0.65265    0.51021    0.49598    1.000
    N4028    N        0.68500    0.69037    0.40106    1.000
    N4029    N        0.65587    0.75347    0.41873    1.000
    Si4030   Si       0.64851    0.71000    0.41498    1.000
    Si4031   Si       0.65016    0.74704    0.46272    1.000
    N4032    N        0.65882    0.70480    0.45848    1.000
    Si4033   Si       0.66693    0.66835    0.48350    1.000
    N4034    N        0.69875    0.64640    0.46015    1.000
    Si4035   Si       0.65346    0.54366    0.52396    1.000
    N4036    N        0.65117    0.52763    0.56563    1.000
    N4037    N        0.65842    0.61635    0.56743    1.000
    Si4038   Si       0.66621    0.59552    0.60991    1.000
    Si4039   Si       0.69361    0.53810    0.56986    1.000
    N4040    N        0.69754    0.55319    0.52695    1.000
    N4041    N        0.68821    0.63052    0.62201    1.000
    N4042    N        0.64808    0.74252    0.52587    1.000
    N4043    N        0.68119    0.69037    0.58084    1.000
    Si4044   Si       0.66093    0.70450    0.54519    1.000
    N4045    N        0.68795    0.68371    0.51669    1.000
    Si4046   Si       0.68309    0.71580    0.61465    1.000
    Si4047   Si       0.69037    0.64684    0.57871    1.000
    N4048    N        0.66163    0.56736    0.64674    1.000
    Si4049   Si       0.66615    0.60251    0.73606    1.000
    Si4050   Si       0.67450    0.53023    0.74548    1.000
    N4051    N        0.69243    0.72200    0.70647    1.000
    N4052    N        0.64695    0.71421    0.63878    1.000
    Si4053   Si       0.64623    0.72466    0.70356    1.000
    Si4054   Si       0.67113    0.57388    0.79448    1.000
    N4055    N        0.66242    0.62240    0.77638    1.000
    N4056    N        0.64869    0.56489    0.75613    1.000
    Si4057   Si       0.67581    0.51117    0.86836    1.000
    Si4058   Si       0.69506    0.63302    0.80458    1.000
    N4059    N        0.67890    0.69793    0.77179    1.000
    N4060    N        0.67093    0.65199    0.83717    1.000
    N4061    N        0.65857    0.74272    0.86856    1.000
    Si4062   Si       0.69521    0.72700    0.80192    1.000
    N4063    N        0.68016    0.62699    0.94088    1.000
    N4064    N        0.67521    0.55246    0.92738    1.000
    Si4065   Si       0.64176    0.62847    0.95742    1.000
    Si4066   Si       0.69467    0.71783    0.87260    1.000
    N4067    N        0.66697    0.68008    0.96630    1.000
    N4068    N        0.69367    0.68136    0.89603    1.000
    N4069    N        0.66339    0.73858    0.99684    1.000
    N4070    N        0.67242    0.81024    0.02160    1.000
    Si4071   Si       0.68437    0.76872    0.02150    1.000
    Si4072   Si       0.66231    0.87914    0.11596    1.000
    N4073    N        0.68262    0.88164    0.00382    1.000
    N4074    N        0.66024    0.91140    0.08922    1.000
    Si4075   Si       0.68275    0.95031    0.07945    1.000
    Si4076   Si       0.64557    0.99758    0.04787    1.000
    N4077    N        0.68767    0.98688    0.05475    1.000
    N4078    N        0.63554    0.00130    0.00607    1.000
    N4079    N        0.67462    0.78865    0.12380    1.000
    Si4080   Si       0.67644    0.81944    0.20358    1.000
    N4081    N        0.69115    0.85556    0.18645    1.000
    Si4082   Si       0.63987    0.80877    0.13916    1.000
    N4083    N        0.63870    0.81651    0.18243    1.000
    N4084    N        0.67358    0.82435    0.24510    1.000
    Si4085   Si       0.66334    0.96999    0.21345    1.000
    N4086    N        0.67625    0.92916    0.21502    1.000
    N4087    N        0.65544    0.89986    0.15428    1.000
    Si4088   Si       0.68449    0.89874    0.18525    1.000
    Si4089   Si       0.68955    0.00386    0.13861    1.000
    N4090    N        0.68209    0.99507    0.18427    1.000
    Si4091   Si       0.67254    0.85783    0.27370    1.000
    N4092    N        0.67319    0.77380    0.30690    1.000
    Si4093   Si       0.66019    0.78828    0.26650    1.000
    N4094    N        0.68137    0.84032    0.31300    1.000
    Si4095   Si       0.65373    0.81002    0.32898    1.000
    N4096    N        0.65816    0.79570    0.37059    1.000
    Si4097   Si       0.69086    0.93187    0.25639    1.000
    N4098    N        0.65100    0.93331    0.28092    1.000
    N4099    N        0.66688    0.97333    0.33570    1.000
    Si4100   Si       0.65928    0.93083    0.32499    1.000
    N4101    N        0.68274    0.97926    0.25499    1.000
    Si4102   Si       0.63981    0.97512    0.26979    1.000
    N4103    N        0.67496    0.85905    0.37859    1.000
    Si4104   Si       0.68835    0.77160    0.39471    1.000
    N4105    N        0.67872    0.77756    0.47758    1.000
    N4106    N        0.66728    0.84202    0.44176    1.000
    Si4107   Si       0.69238    0.87169    0.41657    1.000
    N4108    N        0.63440    0.90017    0.47302    1.000
    Si4109   Si       0.65390    0.99003    0.42452    1.000
    Si4110   Si       0.64108    0.91493    0.39563    1.000
    N4111    N        0.68238    0.91268    0.41556    1.000
    N4112    N        0.66217    0.97121    0.46442    1.000
    N4113    N        0.69039    0.98329    0.40281    1.000
    N4114    N        0.66674    0.86299    0.52605    1.000
    N4115    N        0.68076    0.80090    0.54758    1.000
    Si4116   Si       0.68317    0.76858    0.51942    1.000
    Si4117   Si       0.64619    0.82888    0.54617    1.000
    Si4118   Si       0.65330    0.83607    0.61775    1.000
    Si4119   Si       0.69620    0.78937    0.58613    1.000
    N4120    N        0.69372    0.82325    0.61503    1.000
    N4121    N        0.67479    0.75793    0.60742    1.000
    N4122    N        0.65831    0.00177    0.61146    1.000
    Si4123   Si       0.66650    0.95251    0.55063    1.000
    N4124    N        0.68157    0.94256    0.59055    1.000
    N4125    N        0.64456    0.99003    0.54122    1.000
    Si4126   Si       0.65604    0.84169    0.74067    1.000
    Si4127   Si       0.67385    0.86833    0.67386    1.000
    N4128    N        0.65437    0.83588    0.69662    1.000
    N4129    N        0.64620    0.76376    0.68260    1.000
    N4130    N        0.65126    0.87251    0.63740    1.000
    Si4131   Si       0.69264    0.76452    0.69191    1.000
    Si4132   Si       0.66363    0.96200    0.62589    1.000
    Si4133   Si       0.64013    0.91467    0.72604    1.000
    N4134    N        0.66841    0.90469    0.69590    1.000
    Si4135   Si       0.65952    0.77979    0.84472    1.000
    N4136    N        0.65022    0.80995    0.76827    1.000
    Si4137   Si       0.68789    0.78619    0.76800    1.000
    N4138    N        0.67579    0.76426    0.80823    1.000
    N4139    N        0.64156    0.86693    0.86378    1.000
    Si4140   Si       0.67423    0.88833    0.84720    1.000
    Si4141   Si       0.65195    0.00134    0.81238    1.000
    N4142    N        0.68513    0.99494    0.78289    1.000
    N4143    N        0.67361    0.93134    0.83178    1.000
    N4144    N        0.65828    0.93445    0.75926    1.000
    N4145    N        0.66959    0.99792    0.85191    1.000
    Si4146   Si       0.67346    0.95873    0.86678    1.000
    Si4147   Si       0.64492    0.93216    0.80100    1.000
    Si4148   Si       0.67173    0.97398    0.74635    1.000
    N4149    N        0.66549    0.80571    0.88015    1.000
    N4150    N        0.67090    0.78548    0.94334    1.000
    N4151    N        0.67218    0.85559    0.93436    1.000
    Si4152   Si       0.64693    0.84133    0.89943    1.000
    Si4153   Si       0.64229    0.75857    0.96355    1.000
    Si4154   Si       0.69122    0.77992    0.90369    1.000
    Si4155   Si       0.66513    0.99529    0.97062    1.000
    Si4156   Si       0.67168    0.88899    0.96311    1.000
    N4157    N        0.65332    0.93364    0.89623    1.000
    Si4158   Si       0.69653    0.91858    0.90350    1.000
    N4159    N        0.63313    0.97248    0.95119    1.000
    N4160    N        0.71562    0.03912    0.02030    1.000
    Si4161   Si       0.73447    0.12140    0.02891    1.000
    Si4162   Si       0.74794    0.05530    0.99333    1.000
    N4163    N        0.69779    0.10187    0.04287    1.000
    N4164    N        0.69569    0.05660    0.09101    1.000
    Si4165   Si       0.70997    0.19234    0.02813    1.000
    N4166    N        0.75313    0.19691    0.02136    1.000
    N4167    N        0.70210    0.22443    0.05830    1.000
    N4168    N        0.68705    0.04979    0.15435    1.000
    Si4169   Si       0.71084    0.07516    0.12816    1.000
    N4170    N        0.71653    0.05863    0.21654    1.000
    N4171    N        0.75367    0.07768    0.12908    1.000
    N4172    N        0.70734    0.15206    0.18879    1.000
    N4173    N        0.71312    0.18464    0.12035    1.000
    Si4174   Si       0.69882    0.15461    0.14620    1.000
    N4175    N        0.71823    0.22195    0.21875    1.000
    Si4176   Si       0.73888    0.24516    0.18664    1.000
    Si4177   Si       0.73094    0.19056    0.24356    1.000
    Si4178   Si       0.75480    0.18882    0.13139    1.000
    Si4179   Si       0.72491    0.11064    0.32058    1.000
    N4180    N        0.74028    0.10011    0.28230    1.000
    N4181    N        0.70534    0.03478    0.35540    1.000
    Si4182   Si       0.70959    0.07432    0.26014    1.000
    N4183    N        0.70673    0.03687    0.28260    1.000
    N4184    N        0.75187    0.08874    0.34792    1.000
    Si4185   Si       0.74168    0.05311    0.37272    1.000
    Si4186   Si       0.74129    0.17423    0.36059    1.000
    N4187    N        0.72563    0.21805    0.35586    1.000
    N4188    N        0.72010    0.15534    0.32740    1.000
    N4189    N        0.73228    0.20503    0.28505    1.000
    Si4190   Si       0.75125    0.22051    0.31931    1.000
    N4191    N        0.73193    0.07115    0.41120    1.000
    Si4192   Si       0.69904    0.09222    0.42649    1.000
    Si4193   Si       0.71276    0.06127    0.49468    1.000
    Si4194   Si       0.73977    0.24619    0.38462    1.000
    N4195    N        0.70636    0.17848    0.45619    1.000
    Si4196   Si       0.74140    0.19341    0.43627    1.000
    N4197    N        0.73340    0.16732    0.40162    1.000
    N4198    N        0.72623    0.23407    0.42560    1.000
    Si4199   Si       0.70306    0.25804    0.45339    1.000
    N4200    N        0.73057    0.27011    0.48651    1.000
    N4201    N        0.70796    0.09008    0.52661    1.000
    Si4202   Si       0.71672    0.12650    0.59576    1.000
    Si4203   Si       0.74382    0.11035    0.54229    1.000
    N4204    N        0.69822    0.01872    0.49944    1.000
    N4205    N        0.75398    0.04456    0.61724    1.000
    N4206    N        0.70938    0.21047    0.52371    1.000
    Si4207   Si       0.73263    0.24916    0.52493    1.000
    N4208    N        0.71979    0.14895    0.55830    1.000
    N4209    N        0.71566    0.21394    0.59577    1.000
    Si4210   Si       0.70333    0.19062    0.56053    1.000
    Si4211   Si       0.73257    0.05368    0.65344    1.000
    N4212    N        0.74203    0.09605    0.66126    1.000
    N4213    N        0.74879    0.01529    0.67262    1.000
    Si4214   Si       0.71256    0.12981    0.66560    1.000
    N4215    N        0.69571    0.10035    0.72163    1.000
    N4216    N        0.73381    0.03116    0.74033    1.000
    N4217    N        0.74477    0.20991    0.65701    1.000
    Si4218   Si       0.69990    0.14148    0.73438    1.000
    Si4219   Si       0.74109    0.25577    0.72656    1.000
    N4220    N        0.71585    0.22182    0.72035    1.000
    Si4221   Si       0.74113    0.18972    0.61993    1.000
    N4222    N        0.72210    0.15737    0.69773    1.000
    Si4223   Si       0.70949    0.19857    0.68434    1.000
    N4224    N        0.71842    0.15343    0.62911    1.000
    Si4225   Si       0.71834    0.02217    0.78282    1.000
    Si4226   Si       0.70399    0.02486    0.85764    1.000
    N4227    N        0.73380    0.01897    0.82405    1.000
    N4228    N        0.69902    0.06242    0.78042    1.000
    N4229    N        0.71235    0.13156    0.84751    1.000
    Si4230   Si       0.72118    0.07328    0.74544    1.000
    Si4231   Si       0.70974    0.09254    0.86987    1.000
    N4232    N        0.70751    0.14027    0.77943    1.000
    Si4233   Si       0.74960    0.23624    0.84895    1.000
    N4234    N        0.72470    0.20086    0.83880    1.000
    Si4235   Si       0.74488    0.16240    0.84610    1.000
    Si4236   Si       0.70152    0.04662    0.92793    1.000
    N4237    N        0.71810    0.01917    0.89808    1.000
    N4238    N        0.73776    0.05274    0.95105    1.000
    Si4239   Si       0.75030    0.17399    0.98357    1.000
    N4240    N        0.73091    0.25309    0.88435    1.000
    Si4241   Si       0.69954    0.21636    0.95090    1.000
    N4242    N        0.73429    0.18921    0.94792    1.000
    N4243    N        0.71571    0.25619    0.94835    1.000
    N4244    N        0.71721    0.15032    0.00076    1.000
    N4245    N        0.73844    0.28318    0.05764    1.000
    Si4246   Si       0.74543    0.30454    0.09458    1.000
    N4247    N        0.74753    0.34871    0.08390    1.000
    Si4248   Si       0.69856    0.26519    0.06191    1.000
    Si4249   Si       0.73256    0.38759    0.06964    1.000
    N4250    N        0.73959    0.40009    0.02767    1.000
    N4251    N        0.69557    0.39539    0.08930    1.000
    N4252    N        0.75346    0.41655    0.09605    1.000
    Si4253   Si       0.70925    0.38967    0.99845    1.000
    N4254    N        0.73824    0.29594    0.13519    1.000
    N4255    N        0.73416    0.33965    0.19543    1.000
    Si4256   Si       0.74780    0.31310    0.22589    1.000
    Si4257   Si       0.69798    0.35335    0.17608    1.000
    Si4258   Si       0.69690    0.28856    0.14140    1.000
    N4259    N        0.69859    0.26144    0.17539    1.000
    N4260    N        0.72458    0.38228    0.15306    1.000
    N4261    N        0.73981    0.44705    0.14974    1.000
    N4262    N        0.72036    0.44604    0.22326    1.000
    Si4263   Si       0.73751    0.46660    0.18924    1.000
    Si4264   Si       0.71819    0.41459    0.12674    1.000
    Si4265   Si       0.74311    0.41415    0.24373    1.000
    N4266    N        0.70529    0.49496    0.17565    1.000
    N4267    N        0.73397    0.33288    0.32182    1.000
    Si4268   Si       0.72473    0.29271    0.33009    1.000
    Si4269   Si       0.73847    0.34496    0.27853    1.000
    N4270    N        0.71929    0.31155    0.25812    1.000
    Si4271   Si       0.74981    0.37020    0.34393    1.000
    N4272    N        0.72283    0.38576    0.27321    1.000
    N4273    N        0.73486    0.41080    0.34314    1.000
    Si4274   Si       0.70641    0.41008    0.30783    1.000
    N4275    N        0.70464    0.44935    0.28892    1.000
    Si4276   Si       0.74509    0.46716    0.29057    1.000
    N4277    N        0.74646    0.50536    0.26931    1.000
    Si4278   Si       0.74188    0.50425    0.36232    1.000
    N4279    N        0.72693    0.28806    0.37511    1.000
    N4280    N        0.74200    0.35901    0.45628    1.000
    Si4281   Si       0.72278    0.37437    0.41946    1.000
    N4282    N        0.74454    0.35601    0.38473    1.000
    N4283    N        0.69481    0.33023    0.49534    1.000
    N4284    N        0.72699    0.46981    0.38449    1.000
    N4285    N        0.74304    0.41318    0.41807    1.000
    Si4286   Si       0.74858    0.43289    0.37991    1.000
    Si4287   Si       0.71212    0.48086    0.42463    1.000
    N4288    N        0.74493    0.47311    0.45052    1.000
    N4289    N        0.70996    0.27515    0.55168    1.000
    Si4290   Si       0.74141    0.36491    0.56786    1.000
    N4291    N        0.74220    0.27961    0.61428    1.000
    N4292    N        0.70436    0.34176    0.56119    1.000
    N4293    N        0.75826    0.34672    0.60418    1.000
    Si4294   Si       0.71094    0.26045    0.59273    1.000
    Si4295   Si       0.72486    0.36113    0.49844    1.000
    N4296    N        0.70679    0.46209    0.51447    1.000
    Si4297   Si       0.73086    0.42482    0.52744    1.000
    N4298    N        0.73046    0.40844    0.57321    1.000
    Si4299   Si       0.73693    0.48952    0.53180    1.000
    Si4300   Si       0.72688    0.42434    0.61475    1.000
    N4301    N        0.70142    0.39584    0.51177    1.000
    N4302    N        0.72400    0.50659    0.56894    1.000
    N4303    N        0.73996    0.46624    0.62120    1.000
    N4304    N        0.72227    0.29424    0.73045    1.000
    N4305    N        0.72012    0.33714    0.67512    1.000
    Si4306   Si       0.74747    0.35453    0.64635    1.000
    Si4307   Si       0.75416    0.31189    0.69478    1.000
    N4308    N        0.70381    0.45277    0.68872    1.000
    Si4309   Si       0.72323    0.47873    0.65879    1.000
    N4310    N        0.74749    0.39789    0.64535    1.000
    Si4311   Si       0.72867    0.44700    0.72582    1.000
    Si4312   Si       0.73896    0.30728    0.81998    1.000
    N4313    N        0.70726    0.32080    0.79329    1.000
    N4314    N        0.72223    0.37109    0.75480    1.000
    Si4315   Si       0.70566    0.32858    0.75204    1.000
    N4316    N        0.70042    0.30344    0.85365    1.000
    N4317    N        0.75097    0.26510    0.81838    1.000
    Si4318   Si       0.74032    0.44408    0.82482    1.000
    N4319    N        0.74267    0.48583    0.81182    1.000
    N4320    N        0.71265    0.40858    0.81850    1.000
    N4321    N        0.69987    0.43544    0.75686    1.000
    N4322    N        0.74492    0.44008    0.86717    1.000
    Si4323   Si       0.69695    0.39675    0.77911    1.000
    N4324    N        0.75492    0.47655    0.74576    1.000
    Si4325   Si       0.75049    0.33256    0.95571    1.000
    N4326    N        0.72551    0.37167    0.95879    1.000
    Si4327   Si       0.72305    0.33030    0.88121    1.000
    N4328    N        0.72487    0.31481    0.92293    1.000
    N4329    N        0.71145    0.37318    0.88611    1.000
    Si4330   Si       0.74931    0.27114    0.92404    1.000
    N4331    N        0.73603    0.31667    0.99410    1.000
    N4332    N        0.71606    0.43464    0.92990    1.000
    N4333    N        0.70050    0.49540    0.90144    1.000
    Si4334   Si       0.73007    0.39257    0.92038    1.000
    Si4335   Si       0.73300    0.46560    0.90157    1.000
    Si4336   Si       0.70828    0.61392    0.08665    1.000
    Si4337   Si       0.71275    0.54053    0.10598    1.000
    N4338    N        0.71107    0.57627    0.00957    1.000
    Si4339   Si       0.74648    0.60320    0.01977    1.000
    N4340    N        0.73232    0.62886    0.05397    1.000
    N4341    N        0.73619    0.61696    0.12133    1.000
    N4342    N        0.75475    0.53419    0.09755    1.000
    N4343    N        0.71829    0.69390    0.02202    1.000
    Si4344   Si       0.74249    0.67200    0.05211    1.000
    N4345    N        0.74845    0.68375    0.09388    1.000
    N4346    N        0.72444    0.54817    0.21852    1.000
    Si4347   Si       0.72604    0.59510    0.15744    1.000
    N4348    N        0.71282    0.55503    0.14779    1.000
    Si4349   Si       0.70110    0.53522    0.18465    1.000
    N4350    N        0.72353    0.74141    0.11927    1.000
    Si4351   Si       0.71432    0.69241    0.24020    1.000
    N4352    N        0.72764    0.73157    0.22529    1.000
    N4353    N        0.71113    0.65474    0.21762    1.000
    Si4354   Si       0.74605    0.65806    0.12924    1.000
    N4355    N        0.71409    0.67526    0.15159    1.000
    Si4356   Si       0.72258    0.55868    0.32196    1.000
    N4357    N        0.71767    0.59572    0.34307    1.000
    N4358    N        0.70770    0.52690    0.34850    1.000
    Si4359   Si       0.71292    0.52785    0.25513    1.000
    Si4360   Si       0.74764    0.62701    0.34495    1.000
    Si4361   Si       0.72167    0.63203    0.25385    1.000
    N4362    N        0.69742    0.55546    0.28564    1.000
    N4363    N        0.75145    0.60125    0.25221    1.000
    Si4364   Si       0.74437    0.68628    0.31047    1.000
    N4365    N        0.72503    0.66414    0.34268    1.000
    N4366    N        0.73131    0.72769    0.30598    1.000
    N4367    N        0.73327    0.66981    0.27314    1.000
    N4368    N        0.70888    0.75006    0.36657    1.000
    N4369    N        0.70742    0.52434    0.41480    1.000
    N4370    N        0.74099    0.59227    0.48863    1.000
    N4371    N        0.73176    0.59817    0.42240    1.000
    Si4372   Si       0.70910    0.60567    0.45906    1.000
    Si4373   Si       0.73980    0.55488    0.41166    1.000
    N4374    N        0.72917    0.70874    0.46533    1.000
    N4375    N        0.74657    0.67258    0.41898    1.000
    Si4376   Si       0.70873    0.68253    0.43760    1.000
    Si4377   Si       0.73492    0.59583    0.58178    1.000
    Si4378   Si       0.73966    0.56085    0.51913    1.000
    N4379    N        0.70097    0.57249    0.59369    1.000
    N4380    N        0.75423    0.52116    0.50753    1.000
    N4381    N        0.72652    0.63272    0.56115    1.000
    N4382    N        0.71947    0.74509    0.52298    1.000
    Si4383   Si       0.72394    0.70503    0.50816    1.000
    Si4384   Si       0.72403    0.62003    0.64768    1.000
    N4385    N        0.72475    0.58197    0.66768    1.000
    Si4386   Si       0.72940    0.57528    0.71139    1.000
    N4387    N        0.71037    0.61220    0.73052    1.000
    N4388    N        0.69480    0.55135    0.71326    1.000
    Si4389   Si       0.69343    0.55094    0.66859    1.000
    N4390    N        0.72613    0.65514    0.67368    1.000
    Si4391   Si       0.71045    0.71161    0.74448    1.000
    Si4392   Si       0.74883    0.74428    0.64711    1.000
    Si4393   Si       0.73858    0.64307    0.74248    1.000
    N4394    N        0.71862    0.71357    0.63797    1.000
    Si4395   Si       0.72396    0.69727    0.68246    1.000
    N4396    N        0.74093    0.68636    0.72916    1.000
    Si4397   Si       0.71901    0.57736    0.85220    1.000
    N4398    N        0.70508    0.59355    0.81459    1.000
    N4399    N        0.70405    0.53819    0.84917    1.000
    Si4400   Si       0.70825    0.50985    0.81609    1.000
    N4401    N        0.69038    0.53309    0.78539    1.000
    N4402    N        0.72415    0.74249    0.77002    1.000
    N4403    N        0.72908    0.64942    0.78362    1.000
    N4404    N        0.71754    0.71493    0.83702    1.000
    N4405    N        0.73906    0.64965    0.85095    1.000
    Si4406   Si       0.69759    0.58996    0.92440    1.000
    N4407    N        0.70047    0.60179    0.88204    1.000
    Si4408   Si       0.69954    0.51690    0.93879    1.000
    Si4409   Si       0.73740    0.55961    0.98023    1.000
    N4410    N        0.73398    0.58727    0.94632    1.000
    N4411    N        0.73998    0.52568    0.95546    1.000
    Si4412   Si       0.69851    0.64379    0.87044    1.000
    N4413    N        0.72789    0.70627    0.95436    1.000
    Si4414   Si       0.74827    0.72242    0.92191    1.000
    Si4415   Si       0.73520    0.72273    0.99303    1.000
    N4416    N        0.71684    0.74578    0.90184    1.000
    N4417    N        0.74399    0.65080    0.92189    1.000
    Si4418   Si       0.70157    0.66716    0.93846    1.000
    N4419    N        0.73018    0.80289    0.08290    1.000
    N4420    N        0.72797    0.86140    0.04475    1.000
    Si4421   Si       0.73175    0.84536    0.08500    1.000
    N4422    N        0.70285    0.86102    0.11376    1.000
    Si4423   Si       0.70245    0.77311    0.09605    1.000
    N4424    N        0.72404    0.76570    0.00317    1.000
    Si4425   Si       0.70182    0.84139    0.01456    1.000
    Si4426   Si       0.71577    0.90007    0.02533    1.000
    N4427    N        0.71566    0.92704    0.05772    1.000
    Si4428   Si       0.71727    0.99570    0.02447    1.000
    Si4429   Si       0.73890    0.88013    0.24446    1.000
    N4430    N        0.74820    0.82735    0.15374    1.000
    Si4431   Si       0.72090    0.86028    0.15317    1.000
    Si4432   Si       0.74953    0.80940    0.19323    1.000
    N4433    N        0.70787    0.79008    0.19574    1.000
    N4434    N        0.74793    0.83833    0.22622    1.000
    N4435    N        0.73545    0.00846    0.12570    1.000
    N4436    N        0.69641    0.96330    0.11847    1.000
    N4437    N        0.72418    0.90544    0.16172    1.000
    Si4438   Si       0.73886    0.96404    0.13140    1.000
    N4439    N        0.74945    0.98972    0.23805    1.000
    N4440    N        0.73981    0.85909    0.35291    1.000
    Si4441   Si       0.69804    0.86658    0.34308    1.000
    N4442    N        0.74661    0.78936    0.28064    1.000
    N4443    N        0.69883    0.88725    0.25938    1.000
    N4444    N        0.72698    0.94324    0.27875    1.000
    Si4445   Si       0.73112    0.93401    0.32053    1.000
    N4446    N        0.73257    0.97200    0.34251    1.000
    Si4447   Si       0.72220    0.99613    0.27344    1.000
    Si4448   Si       0.69896    0.99099    0.35947    1.000
    N4449    N        0.69739    0.90869    0.33405    1.000
    N4450    N        0.72063    0.82954    0.48937    1.000
    N4451    N        0.71303    0.78968    0.42407    1.000
    N4452    N        0.73331    0.85878    0.42613    1.000
    Si4453   Si       0.74835    0.87908    0.46131    1.000
    Si4454   Si       0.69357    0.81324    0.45797    1.000
    Si4455   Si       0.71215    0.94703    0.41669    1.000
    N4456    N        0.75029    0.93132    0.39552    1.000
    N4457    N        0.73050    0.96202    0.45513    1.000
    Si4458   Si       0.70024    0.97619    0.48436    1.000
    N4459    N        0.73848    0.78077    0.57933    1.000
    N4460    N        0.73226    0.86214    0.55485    1.000
    Si4461   Si       0.71035    0.86079    0.51892    1.000
    Si4462   Si       0.75160    0.76352    0.54184    1.000
    Si4463   Si       0.75238    0.88383    0.58541    1.000
    Si4464   Si       0.73843    0.93056    0.52423    1.000
    N4465    N        0.70047    0.95432    0.52205    1.000
    Si4466   Si       0.71956    0.93781    0.61426    1.000
    N4467    N        0.75074    0.97002    0.61377    1.000
    N4468    N        0.73059    0.89568    0.49713    1.000
    N4469    N        0.75197    0.92410    0.56588    1.000
    N4470    N        0.71505    0.85216    0.67518    1.000
    Si4471   Si       0.72350    0.81899    0.64618    1.000
    N4472    N        0.72154    0.77808    0.66122    1.000
    Si4473   Si       0.71758    0.83117    0.71389    1.000
    N4474    N        0.69990    0.79176    0.72470    1.000
    Si4475   Si       0.74425    0.88310    0.66307    1.000
    N4476    N        0.69532    0.94797    0.65009    1.000
    Si4477   Si       0.70038    0.93579    0.69068    1.000
    N4478    N        0.70266    0.96984    0.71652    1.000
    Si4479   Si       0.73538    0.99933    0.71030    1.000
    N4480    N        0.74089    0.91713    0.69009    1.000
    N4481    N        0.73388    0.89698    0.62227    1.000
    N4482    N        0.72219    0.80572    0.78999    1.000
    Si4483   Si       0.71620    0.84926    0.78564    1.000
    N4484    N        0.70071    0.86873    0.81851    1.000
    Si4485   Si       0.74764    0.76961    0.79387    1.000
    Si4486   Si       0.73492    0.87724    0.84750    1.000
    N4487    N        0.69763    0.85396    0.74609    1.000
    N4488    N        0.72240    0.83079    0.97841    1.000
    N4489    N        0.72228    0.81162    0.91322    1.000
    Si4490   Si       0.69486    0.82178    0.94630    1.000
    Si4491   Si       0.72502    0.94465    0.96766    1.000
    N4492    N        0.70003    0.97703    0.98713    1.000
    N4493    N        0.69722    0.91960    0.94526    1.000
    N4494    N        0.74329    0.91496    0.99247    1.000
    Si4495   Si       0.74190    0.98146    0.90378    1.000
    N4496    N        0.70541    0.88602    0.87724    1.000
    N4497    N        0.71439    0.95393    0.88583    1.000
    N4498    N        0.78582    0.03774    0.01060    1.000
    N4499    N        0.80218    0.03297    0.11072    1.000
    Si4500   Si       0.79666    0.12467    0.07528    1.000
    N4501    N        0.80316    0.08702    0.05596    1.000
    N4502    N        0.75506    0.09616    0.99905    1.000
    N4503    N        0.76415    0.14263    0.05211    1.000
    N4504    N        0.77782    0.19507    0.09565    1.000
    Si4505   Si       0.78172    0.18545    0.05283    1.000
    N4506    N        0.81561    0.21389    0.05102    1.000
    N4507    N        0.80776    0.10800    0.11581    1.000
    N4508    N        0.76941    0.03137    0.17954    1.000
    Si4509   Si       0.76625    0.03616    0.13496    1.000
    Si4510   Si       0.77579    0.10951    0.14704    1.000
    N4511    N        0.76595    0.10244    0.18992    1.000
    Si4512   Si       0.75804    0.06344    0.20821    1.000
    N4513    N        0.77552    0.05464    0.24697    1.000
    Si4514   Si       0.80479    0.15920    0.23987    1.000
    N4515    N        0.76420    0.16637    0.22585    1.000
    Si4516   Si       0.80538    0.23092    0.16829    1.000
    N4517    N        0.75936    0.14992    0.15039    1.000
    N4518    N        0.76273    0.21846    0.16274    1.000
    Si4519   Si       0.74801    0.14112    0.19298    1.000
    Si4520   Si       0.78226    0.08839    0.27462    1.000
    Si4521   Si       0.79626    0.09346    0.34915    1.000
    N4522    N        0.77619    0.02681    0.36408    1.000
    N4523    N        0.80607    0.07489    0.31041    1.000
    Si4524   Si       0.78440    0.01341    0.25685    1.000
    N4525    N        0.80770    0.11795    0.25549    1.000
    N4526    N        0.77755    0.19067    0.33728    1.000
    N4527    N        0.79257    0.13429    0.37043    1.000
    Si4528   Si       0.81107    0.16655    0.34876    1.000
    Si4529   Si       0.80991    0.03641    0.39160    1.000
    N4530    N        0.78696    0.11198    0.44024    1.000
    Si4531   Si       0.76512    0.07287    0.44009    1.000
    N4532    N        0.78784    0.03893    0.42861    1.000
    Si4533   Si       0.81105    0.01589    0.45588    1.000
    Si4534   Si       0.81318    0.11604    0.40481    1.000
    N4535    N        0.75157    0.06543    0.47849    1.000
    Si4536   Si       0.81515    0.21088    0.46067    1.000
    N4537    N        0.79909    0.25118    0.45585    1.000
    N4538    N        0.78244    0.25212    0.38430    1.000
    N4539    N        0.77897    0.18576    0.45537    1.000
    Si4540   Si       0.78322    0.14427    0.47198    1.000
    Si4541   Si       0.77740    0.06593    0.58684    1.000
    Si4542   Si       0.78577    0.05651    0.50751    1.000
    N4543    N        0.76706    0.06493    0.54415    1.000
    N4544    N        0.75729    0.10803    0.58799    1.000
    N4545    N        0.76868    0.12802    0.51072    1.000
    N4546    N        0.79978    0.01732    0.49656    1.000
    Si4547   Si       0.79428    0.13226    0.59653    1.000
    N4548    N        0.77895    0.17215    0.60498    1.000
    N4549    N        0.77627    0.24636    0.52397    1.000
    Si4550   Si       0.81081    0.20073    0.60881    1.000
    Si4551   Si       0.78389    0.10544    0.66972    1.000
    N4552    N        0.80757    0.11247    0.63240    1.000
    N4553    N        0.80772    0.07061    0.68209    1.000
    N4554    N        0.79095    0.14033    0.69542    1.000
    N4555    N        0.78653    0.20620    0.70923    1.000
    N4556    N        0.81000    0.22628    0.64483    1.000
    Si4557   Si       0.78062    0.23100    0.67396    1.000
    Si4558   Si       0.76377    0.16934    0.70955    1.000
    Si4559   Si       0.79619    0.07853    0.76610    1.000
    N4560    N        0.75624    0.09637    0.76082    1.000
    N4561    N        0.80650    0.02745    0.84802    1.000
    N4562    N        0.80513    0.03915    0.74665    1.000
    N4563    N        0.76266    0.16752    0.75277    1.000
    N4564    N        0.77286    0.14403    0.81806    1.000
    N4565    N        0.78539    0.21629    0.85801    1.000
    N4566    N        0.76953    0.24769    0.75861    1.000
    Si4567   Si       0.78272    0.20629    0.75412    1.000
    Si4568   Si       0.75145    0.13562    0.77990    1.000
    Si4569   Si       0.76662    0.06746    0.91909    1.000
    Si4570   Si       0.77805    0.12079    0.88974    1.000
    N4571    N        0.79733    0.03744    0.91771    1.000
    Si4572   Si       0.78370    0.11511    0.97299    1.000
    N4573    N        0.78012    0.10554    0.93180    1.000
    N4574    N        0.75254    0.08684    0.87854    1.000
    Si4575   Si       0.80035    0.25600    0.95856    1.000
    N4576    N        0.76315    0.16121    0.88604    1.000
    Si4577   Si       0.77976    0.19994    0.90142    1.000
    N4578    N        0.78776    0.15744    0.97067    1.000
    N4579    N        0.77877    0.23678    0.92652    1.000
    N4580    N        0.78908    0.30473    0.09679    1.000
    N4581    N        0.78899    0.32280    0.03292    1.000
    Si4582   Si       0.78957    0.33971    0.07257    1.000
    Si4583   Si       0.75949    0.29121    0.02126    1.000
    N4584    N        0.78394    0.26180    0.00079    1.000
    Si4585   Si       0.80781    0.35085    0.00637    1.000
    Si4586   Si       0.78104    0.41338    0.01904    1.000
    N4587    N        0.79264    0.47747    0.10583    1.000
    N4588    N        0.79301    0.45419    0.03240    1.000
    Si4589   Si       0.75964    0.36864    0.17660    1.000
    N4590    N        0.80290    0.27251    0.15217    1.000
    Si4591   Si       0.77373    0.30246    0.16237    1.000
    N4592    N        0.79037    0.34355    0.15866    1.000
    N4593    N        0.75998    0.28024    0.20045    1.000
    N4594    N        0.76800    0.40036    0.20835    1.000
    N4595    N        0.78161    0.47258    0.19570    1.000
    N4596    N        0.80315    0.42219    0.14922    1.000
    Si4597   Si       0.79422    0.42974    0.19043    1.000
    Si4598   Si       0.77404    0.44291    0.12292    1.000
    N4599    N        0.79370    0.31233    0.35537    1.000
    Si4600   Si       0.79683    0.26892    0.34583    1.000
    N4601    N        0.78978    0.37636    0.32483    1.000
    N4602    N        0.75926    0.26425    0.32173    1.000
    N4603    N        0.77264    0.33911    0.25081    1.000
    N4604    N        0.76845    0.43376    0.27322    1.000
    Si4605   Si       0.79752    0.40794    0.29489    1.000
    Si4606   Si       0.80081    0.47088    0.34547    1.000
    N4607    N        0.76228    0.48669    0.32674    1.000
    N4608    N        0.79555    0.30718    0.48725    1.000
    N4609    N        0.77691    0.30820    0.42238    1.000
    Si4610   Si       0.77801    0.33569    0.45690    1.000
    Si4611   Si       0.80078    0.27266    0.41871    1.000
    Si4612   Si       0.77457    0.26900    0.48680    1.000
    Si4613   Si       0.75912    0.31599    0.38298    1.000
    N4614    N        0.81271    0.36470    0.47345    1.000
    N4615    N        0.80564    0.44039    0.44854    1.000
    Si4616   Si       0.76263    0.43222    0.45251    1.000
    N4617    N        0.79011    0.44740    0.37948    1.000
    N4618    N        0.75987    0.41916    0.49446    1.000
    N4619    N        0.80837    0.50506    0.46789    1.000
    Si4620   Si       0.77553    0.30718    0.61585    1.000
    N4621    N        0.75906    0.36249    0.52725    1.000
    N4622    N        0.80715    0.29888    0.58950    1.000
    Si4623   Si       0.78755    0.38717    0.50672    1.000
    Si4624   Si       0.80976    0.44549    0.55096    1.000
    N4625    N        0.76649    0.46164    0.55114    1.000
    Si4626   Si       0.75707    0.48790    0.58793    1.000
    N4627    N        0.76499    0.26818    0.69045    1.000
    N4628    N        0.77895    0.32364    0.65756    1.000
    N4629    N        0.77263    0.33840    0.72451    1.000
    Si4630   Si       0.76112    0.37902    0.73788    1.000
    N4631    N        0.80721    0.38267    0.67951    1.000
    N4632    N        0.79590    0.44504    0.65964    1.000
    Si4633   Si       0.77442    0.41221    0.67538    1.000
    Si4634   Si       0.79973    0.48816    0.66904    1.000
    N4635    N        0.75670    0.49196    0.68260    1.000
    N4636    N        0.75508    0.41470    0.71303    1.000
    N4637    N        0.77800    0.31744    0.79811    1.000
    Si4638   Si       0.79475    0.33928    0.83591    1.000
    Si4639   Si       0.78901    0.27486    0.78879    1.000
    N4640    N        0.79347    0.37790    0.76839    1.000
    Si4641   Si       0.79605    0.33324    0.75998    1.000
    N4642    N        0.75971    0.32415    0.85864    1.000
    N4643    N        0.78927    0.38199    0.83944    1.000
    Si4644   Si       0.77603    0.47682    0.78593    1.000
    N4645    N        0.77908    0.43739    0.80386    1.000
    Si4646   Si       0.80380    0.40294    0.80379    1.000
    N4647    N        0.80913    0.50430    0.79104    1.000
    N4648    N        0.80457    0.50638    0.86387    1.000
    N4649    N        0.79053    0.35362    0.96615    1.000
    N4650    N        0.78048    0.29690    0.94292    1.000
    N4651    N        0.77142    0.48161    0.91722    1.000
    Si4652   Si       0.80713    0.47493    0.89179    1.000
    N4653    N        0.81268    0.43664    0.87364    1.000
    Si4654   Si       0.79728    0.39254    0.94703    1.000
    N4655    N        0.77375    0.39338    0.91110    1.000
    Si4656   Si       0.80478    0.46419    0.99181    1.000
    Si4657   Si       0.77930    0.41103    0.87137    1.000
    N4658    N        0.78772    0.42428    0.97836    1.000
    N4659    N        0.79568    0.50648    0.98430    1.000
    N4660    N        0.77165    0.57004    0.00467    1.000
    Si4661   Si       0.79107    0.51905    0.11401    1.000
    Si4662   Si       0.80797    0.54409    0.00524    1.000
    N4663    N        0.78500    0.67784    0.03811    1.000
    Si4664   Si       0.79369    0.72152    0.04080    1.000
    N4665    N        0.76791    0.74392    0.06756    1.000
    Si4666   Si       0.79196    0.65067    0.00623    1.000
    N4667    N        0.77667    0.73358    0.00078    1.000
    Si4668   Si       0.75988    0.72336    0.10531    1.000
    N4669    N        0.79810    0.72218    0.12332    1.000
    Si4670   Si       0.80029    0.51209    0.19528    1.000
    N4671    N        0.80079    0.53185    0.15547    1.000
    N4672    N        0.76263    0.59842    0.18204    1.000
    Si4673   Si       0.79921    0.62163    0.17246    1.000
    N4674    N        0.79363    0.54711    0.22191    1.000
    Si4675   Si       0.75869    0.57418    0.21809    1.000
    N4676    N        0.79121    0.71483    0.19944    1.000
    Si4677   Si       0.77019    0.74484    0.22440    1.000
    N4678    N        0.78567    0.65608    0.14777    1.000
    Si4679   Si       0.77737    0.59498    0.28577    1.000
    Si4680   Si       0.77790    0.51798    0.29935    1.000
    N4681    N        0.76560    0.55866    0.30839    1.000
    N4682    N        0.77571    0.62839    0.31062    1.000
    N4683    N        0.78648    0.69427    0.32074    1.000
    N4684    N        0.78584    0.73620    0.26383    1.000
    Si4685   Si       0.80789    0.65855    0.30602    1.000
    Si4686   Si       0.76366    0.75353    0.29698    1.000
    Si4687   Si       0.81541    0.72666    0.33229    1.000
    Si4688   Si       0.80851    0.54514    0.37351    1.000
    N4689    N        0.77733    0.62518    0.37783    1.000
    N4690    N        0.76555    0.53858    0.37947    1.000
    Si4691   Si       0.78210    0.60356    0.47731    1.000
    N4692    N        0.76581    0.54478    0.44482    1.000
    N4693    N        0.79217    0.62657    0.44361    1.000
    Si4694   Si       0.80909    0.54508    0.45118    1.000
    Si4695   Si       0.75926    0.63176    0.41646    1.000
    N4696    N        0.81413    0.57497    0.48163    1.000
    Si4697   Si       0.76504    0.50818    0.46687    1.000
    N4698    N        0.79017    0.72512    0.47931    1.000
    N4699    N        0.77206    0.74116    0.41308    1.000
    Si4700   Si       0.76982    0.70628    0.44134    1.000
    Si4701   Si       0.81712    0.73137    0.40791    1.000
    N4702    N        0.81116    0.69188    0.42292    1.000
    Si4703   Si       0.79459    0.55318    0.57292    1.000
    N4704    N        0.75951    0.57202    0.55675    1.000
    N4705    N        0.78517    0.63101    0.51271    1.000
    N4706    N        0.78967    0.51419    0.59412    1.000
    N4707    N        0.75404    0.61116    0.61872    1.000
    N4708    N        0.81340    0.57278    0.60921    1.000
    N4709    N        0.79107    0.74467    0.54343    1.000
    Si4710   Si       0.79477    0.70936    0.51938    1.000
    N4711    N        0.80139    0.64886    0.56782    1.000
    Si4712   Si       0.76285    0.65027    0.54731    1.000
    N4713    N        0.75802    0.68814    0.52749    1.000
    Si4714   Si       0.79450    0.60369    0.63331    1.000
    N4715    N        0.79848    0.53368    0.65927    1.000
    N4716    N        0.76609    0.55077    0.72111    1.000
    N4717    N        0.79095    0.60147    0.67670    1.000
    Si4718   Si       0.79864    0.56112    0.69120    1.000
    N4719    N        0.78127    0.62797    0.74044    1.000
    Si4720   Si       0.77214    0.50813    0.72090    1.000
    N4721    N        0.75944    0.72474    0.68421    1.000
    N4722    N        0.80089    0.72065    0.74664    1.000
    Si4723   Si       0.80238    0.63443    0.70185    1.000
    Si4724   Si       0.77953    0.70159    0.71429    1.000
    N4725    N        0.78247    0.75340    0.62274    1.000
    N4726    N        0.80751    0.67756    0.69067    1.000
    N4727    N        0.78673    0.61779    0.81004    1.000
    Si4728   Si       0.79097    0.60081    0.85073    1.000
    N4729    N        0.76119    0.57173    0.86364    1.000
    Si4730   Si       0.81030    0.61835    0.77257    1.000
    N4731    N        0.78098    0.68891    0.80881    1.000
    Si4732   Si       0.76026    0.71345    0.84017    1.000
    Si4733   Si       0.75961    0.65051    0.81352    1.000
    Si4734   Si       0.81377    0.69565    0.78104    1.000
    N4735    N        0.76707    0.75662    0.83180    1.000
    Si4736   Si       0.79601    0.54579    0.87862    1.000
    Si4737   Si       0.77982    0.51454    0.94425    1.000
    Si4738   Si       0.76288    0.61971    0.94640    1.000
    N4739    N        0.79788    0.54574    0.92198    1.000
    N4740    N        0.80494    0.61666    0.93645    1.000
    N4741    N        0.75948    0.62996    0.98808    1.000
    Si4742   Si       0.81071    0.71525    0.89811    1.000
    Si4743   Si       0.76257    0.66228    0.88288    1.000
    N4744    N        0.79715    0.63901    0.87309    1.000
    N4745    N        0.76874    0.70497    0.88490    1.000
    N4746    N        0.80937    0.67605    0.97384    1.000
    Si4747   Si       0.80590    0.71923    0.97134    1.000
    N4748    N        0.79513    0.73754    0.93341    1.000
    N4749    N        0.77956    0.80002    0.03563    1.000
    Si4750   Si       0.77101    0.78678    0.07445    1.000
    N4751    N        0.77177    0.85368    0.09802    1.000
    N4752    N        0.79604    0.79142    0.11045    1.000
    Si4753   Si       0.76475    0.77820    0.00237    1.000
    Si4754   Si       0.79731    0.87838    0.07305    1.000
    Si4755   Si       0.80953    0.82825    0.02235    1.000
    N4756    N        0.78758    0.85676    0.99798    1.000
    N4757    N        0.78099    0.90847    0.04599    1.000
    N4758    N        0.76469    0.94510    0.10230    1.000
    Si4759   Si       0.79074    0.99724    0.02397    1.000
    Si4760   Si       0.78308    0.90028    0.00322    1.000
    Si4761   Si       0.75698    0.94216    0.06052    1.000
    N4762    N        0.75442    0.97776    0.03562    1.000
    N4763    N        0.78072    0.78328    0.20566    1.000
    Si4764   Si       0.78565    0.82837    0.13169    1.000
    N4765    N        0.76105    0.96216    0.16955    1.000
    N4766    N        0.75481    0.91509    0.22394    1.000
    N4767    N        0.79492    0.90467    0.16151    1.000
    Si4768   Si       0.75954    0.91948    0.18090    1.000
    Si4769   Si       0.77190    0.99232    0.19759    1.000
    Si4770   Si       0.80215    0.92922    0.12417    1.000
    N4771    N        0.80854    0.99350    0.21899    1.000
    N4772    N        0.79742    0.83475    0.32873    1.000
    Si4773   Si       0.79933    0.80014    0.35618    1.000
    Si4774   Si       0.77117    0.86902    0.32255    1.000
    Si4775   Si       0.76488    0.82402    0.26302    1.000
    N4776    N        0.78824    0.76331    0.33201    1.000
    N4777    N        0.80692    0.81537    0.25981    1.000
    N4778    N        0.76376    0.86390    0.27933    1.000
    N4779    N        0.79974    0.93610    0.26559    1.000
    Si4780   Si       0.76986    0.99550    0.33426    1.000
    N4781    N        0.77012    0.91337    0.32126    1.000
    Si4782   Si       0.80606    0.93526    0.30762    1.000
    N4783    N        0.80846    0.97286    0.33259    1.000
    Si4784   Si       0.76103    0.94767    0.25179    1.000
    N4785    N        0.76272    0.00481    0.29284    1.000
    N4786    N        0.77048    0.80683    0.38692    1.000
    N4787    N        0.79343    0.86911    0.39465    1.000
    N4788    N        0.77262    0.78798    0.45832    1.000
    N4789    N        0.78064    0.85279    0.47758    1.000
    Si4790   Si       0.76078    0.81567    0.48719    1.000
    Si4791   Si       0.80775    0.76402    0.47139    1.000
    Si4792   Si       0.75557    0.84603    0.39111    1.000
    Si4793   Si       0.75706    0.78061    0.41851    1.000
    Si4794   Si       0.81015    0.87682    0.45889    1.000
    N4795    N        0.80428    0.97394    0.44753    1.000
    Si4796   Si       0.78452    0.90978    0.40445    1.000
    Si4797   Si       0.77117    0.94819    0.46152    1.000
    N4798    N        0.77925    0.90730    0.44803    1.000
    Si4799   Si       0.77457    0.79036    0.60142    1.000
    N4800    N        0.79300    0.87026    0.59485    1.000
    N4801    N        0.77084    0.80046    0.52472    1.000
    Si4802   Si       0.80921    0.78791    0.53977    1.000
    N4803    N        0.81024    0.80458    0.57903    1.000
    Si4804   Si       0.77888    0.95678    0.58166    1.000
    Si4805   Si       0.80525    0.97977    0.51669    1.000
    N4806    N        0.79950    0.99024    0.56127    1.000
    N4807    N        0.77282    0.95234    0.50547    1.000
    N4808    N        0.81164    0.93755    0.60119    1.000
    N4809    N        0.76254    0.82163    0.62774    1.000
    Si4810   Si       0.79978    0.84466    0.63046    1.000
    N4811    N        0.78546    0.86877    0.66425    1.000
    Si4812   Si       0.79580    0.85259    0.70379    1.000
    N4813    N        0.76062    0.83286    0.71808    1.000
    Si4814   Si       0.81140    0.76441    0.74486    1.000
    Si4815   Si       0.78004    0.93430    0.70305    1.000
    N4816    N        0.80967    0.00114    0.62762    1.000
    N4817    N        0.77288    0.97403    0.72079    1.000
    N4818    N        0.80310    0.89843    0.71570    1.000
    N4819    N        0.80601    0.93783    0.66780    1.000
    Si4820   Si       0.76710    0.00621    0.63311    1.000
    N4821    N        0.77930    0.78407    0.76792    1.000
    Si4822   Si       0.77700    0.82755    0.75916    1.000
    Si4823   Si       0.79939    0.77148    0.85469    1.000
    N4824    N        0.76393    0.84712    0.85782    1.000
    N4825    N        0.76054    0.85928    0.78452    1.000
    Si4826   Si       0.80678    0.84078    0.85520    1.000
    Si4827   Si       0.78244    0.88848    0.80644    1.000
    N4828    N        0.77770    0.98662    0.79296    1.000
    Si4829   Si       0.78267    0.93905    0.86130    1.000
    N4830    N        0.80074    0.91525    0.77744    1.000
    Si4831   Si       0.79225    0.99728    0.75169    1.000
    N4832    N        0.75827    0.91158    0.83418    1.000
    Si4833   Si       0.77349    0.00386    0.83349    1.000
    N4834    N        0.77287    0.98222    0.87232    1.000
    Si4835   Si       0.80894    0.95628    0.79505    1.000
    Si4836   Si       0.81054    0.87924    0.91413    1.000
    Si4837   Si       0.76461    0.83745    0.96711    1.000
    N4838    N        0.78425    0.79176    0.89042    1.000
    N4839    N        0.77924    0.79698    0.96572    1.000
    N4840    N        0.77596    0.85454    0.92695    1.000
    Si4841   Si       0.79959    0.78196    0.93175    1.000
    Si4842   Si       0.75900    0.82729    0.89749    1.000
    N4843    N        0.75527    0.96265    0.94263    1.000
    Si4844   Si       0.79734    0.95762    0.95427    1.000
    N4845    N        0.80703    0.91620    0.97165    1.000
    N4846    N        0.79092    0.91277    0.89389    1.000
    Si4847   Si       0.80878    0.00552    0.88985    1.000
    N4848    N        0.81119    0.98161    0.98787    1.000
    N4849    N        0.86150    0.06212    0.02569    1.000
    N4850    N        0.85988    0.07700    0.09489    1.000
    Si4851   Si       0.81781    0.06786    0.01989    1.000
    Si4852   Si       0.81739    0.06856    0.09287    1.000
    N4853    N        0.84248    0.25202    0.09617    1.000
    N4854    N        0.82659    0.15175    0.06283    1.000
    Si4855   Si       0.81924    0.21251    0.09572    1.000
    Si4856   Si       0.86879    0.16253    0.06030    1.000
    Si4857   Si       0.81589    0.23742    0.01559    1.000
    Si4858   Si       0.85290    0.10504    0.13007    1.000
    N4859    N        0.86098    0.10078    0.21344    1.000
    N4860    N        0.86621    0.07243    0.15504    1.000
    Si4861   Si       0.84407    0.20677    0.22838    1.000
    Si4862   Si       0.86752    0.18461    0.13713    1.000
    N4863    N        0.82654    0.20291    0.13983    1.000
    N4864    N        0.86352    0.14199    0.14954    1.000
    N4865    N        0.83474    0.16829    0.20822    1.000
    Si4866   Si       0.86640    0.14179    0.19285    1.000
    N4867    N        0.81905    0.23590    0.20969    1.000
    N4868    N        0.85435    0.02797    0.33682    1.000
    Si4869   Si       0.83753    0.04735    0.30298    1.000
    N4870    N        0.82742    0.01789    0.27458    1.000
    Si4871   Si       0.85021    0.10623    0.25427    1.000
    N4872    N        0.86493    0.07400    0.27925    1.000
    Si4873   Si       0.85116    0.17095    0.29302    1.000
    N4874    N        0.83161    0.14371    0.31946    1.000
    Si4875   Si       0.86283    0.22576    0.34253    1.000
    N4876    N        0.82367    0.19007    0.26371    1.000
    N4877    N        0.84145    0.19308    0.36512    1.000
    N4878    N        0.83508    0.25804    0.32867    1.000
    Si4879   Si       0.85877    0.06621    0.48551    1.000
    N4880    N        0.84976    0.03589    0.45464    1.000
    N4881    N        0.81818    0.07871    0.38343    1.000
    Si4882   Si       0.85828    0.13992    0.46077    1.000
    Si4883   Si       0.86381    0.24705    0.41068    1.000
    N4884    N        0.84386    0.21325    0.42870    1.000
    N4885    N        0.84402    0.14366    0.41789    1.000
    Si4886   Si       0.86119    0.18042    0.40188    1.000
    N4887    N        0.82507    0.14774    0.48686    1.000
    N4888    N        0.82351    0.07986    0.50759    1.000
    Si4889   Si       0.86444    0.05482    0.60091    1.000
    N4890    N        0.82080    0.05618    0.58815    1.000
    Si4891   Si       0.82356    0.01288    0.58729    1.000
    N4892    N        0.86860    0.01339    0.59289    1.000
    Si4893   Si       0.81134    0.12077    0.51973    1.000
    N4894    N        0.81750    0.13640    0.55863    1.000
    N4895    N        0.84600    0.17334    0.60833    1.000
    Si4896   Si       0.84410    0.17182    0.56464    1.000
    N4897    N        0.81997    0.20896    0.56719    1.000
    Si4898   Si       0.81724    0.23497    0.53260    1.000
    N4899    N        0.83512    0.21246    0.50060    1.000
    Si4900   Si       0.82928    0.06122    0.71947    1.000
    N4901    N        0.85499    0.11982    0.68441    1.000
    Si4902   Si       0.83845    0.09183    0.65655    1.000
    N4903    N        0.86768    0.06215    0.64332    1.000
    N4904    N        0.82731    0.10125    0.74349    1.000
    N4905    N        0.86823    0.19290    0.67100    1.000
    N4906    N        0.85330    0.16797    0.73728    1.000
    Si4907   Si       0.84823    0.23159    0.66369    1.000
    Si4908   Si       0.83042    0.13780    0.71554    1.000
    Si4909   Si       0.84824    0.04160    0.84999    1.000
    Si4910   Si       0.85051    0.10488    0.78048    1.000
    N4911    N        0.81548    0.08747    0.80279    1.000
    N4912    N        0.81688    0.12161    0.86798    1.000
    Si4913   Si       0.81205    0.12809    0.82444    1.000
    N4914    N        0.84545    0.14341    0.79856    1.000
    N4915    N        0.85124    0.20755    0.84696    1.000
    Si4916   Si       0.84998    0.18189    0.77807    1.000
    Si4917   Si       0.81408    0.21964    0.82629    1.000
    N4918    N        0.81209    0.20245    0.78634    1.000
    Si4919   Si       0.85099    0.10972    0.95885    1.000
    Si4920   Si       0.83994    0.04513    0.92578    1.000
    N4921    N        0.82156    0.09533    0.98609    1.000
    N4922    N        0.84777    0.08678    0.91962    1.000
    N4923    N        0.85369    0.02265    0.89181    1.000
    Si4924   Si       0.85524    0.10413    0.88126    1.000
    N4925    N        0.85963    0.03182    0.96307    1.000
    N4926    N        0.82081    0.19326    0.91292    1.000
    N4927    N        0.82091    0.21572    0.97809    1.000
    Si4928   Si       0.82237    0.17923    0.95503    1.000
    N4929    N        0.85509    0.15151    0.94747    1.000
    Si4930   Si       0.84797    0.21831    0.89021    1.000
    Si4931   Si       0.86187    0.30070    0.02204    1.000
    Si4932   Si       0.82046    0.28390    0.11521    1.000
    N4933    N        0.81790    0.36287    0.09348    1.000
    N4934    N        0.85408    0.25758    0.01037    1.000
    Si4935   Si       0.83653    0.39134    0.06765    1.000
    N4936    N        0.83336    0.42729    0.08844    1.000
    N4937    N        0.84574    0.48868    0.05612    1.000
    Si4938   Si       0.86811    0.47744    0.02185    1.000
    Si4939   Si       0.81353    0.46078    0.07135    1.000
    N4940    N        0.81185    0.38512    0.03173    1.000
    N4941    N        0.87061    0.27023    0.18682    1.000
    Si4942   Si       0.84049    0.27477    0.22015    1.000
    N4943    N        0.84815    0.31325    0.13238    1.000
    Si4944   Si       0.82657    0.35198    0.13457    1.000
    N4945    N        0.83919    0.31983    0.22702    1.000
    N4946    N        0.86966    0.44714    0.15537    1.000
    N4947    N        0.86170    0.38100    0.13939    1.000
    N4948    N        0.84146    0.49995    0.20600    1.000
    Si4949   Si       0.85702    0.46232    0.19434    1.000
    N4950    N        0.83403    0.43068    0.20918    1.000
    Si4951   Si       0.85181    0.40707    0.24143    1.000
    Si4952   Si       0.84456    0.42185    0.13069    1.000
    N4953    N        0.84971    0.35151    0.36009    1.000
    Si4954   Si       0.84653    0.28639    0.29771    1.000
    N4955    N        0.82352    0.32227    0.29666    1.000
    N4956    N        0.85542    0.26581    0.25999    1.000
    Si4957   Si       0.81787    0.34296    0.25827    1.000
    Si4958   Si       0.81426    0.34346    0.33411    1.000
    N4959    N        0.82118    0.38638    0.26615    1.000
    Si4960   Si       0.85927    0.43958    0.30951    1.000
    N4961    N        0.81655    0.44248    0.31615    1.000
    N4962    N        0.87115    0.48071    0.32880    1.000
    N4963    N        0.87029    0.43516    0.26785    1.000
    N4964    N        0.86732    0.30526    0.48438    1.000
    N4965    N        0.83908    0.28080    0.40459    1.000
    Si4966   Si       0.84492    0.37584    0.44375    1.000
    Si4967   Si       0.85279    0.31887    0.38768    1.000
    N4968    N        0.85745    0.33761    0.42829    1.000
    Si4969   Si       0.83229    0.32872    0.49377    1.000
    N4970    N        0.86592    0.45622    0.47252    1.000
    Si4971   Si       0.82360    0.44045    0.40857    1.000
    Si4972   Si       0.82550    0.46744    0.47908    1.000
    Si4973   Si       0.86965    0.38734    0.37444    1.000
    N4974    N        0.86294    0.46219    0.40196    1.000
    N4975    N        0.83799    0.39870    0.40567    1.000
    N4976    N        0.83607    0.33859    0.53440    1.000
    Si4977   Si       0.83965    0.30349    0.56253    1.000
    N4978    N        0.84538    0.26798    0.53973    1.000
    N4979    N        0.85561    0.37919    0.58488    1.000
    Si4980   Si       0.84826    0.37915    0.54082    1.000
    N4981    N        0.82978    0.47418    0.52494    1.000
    N4982    N        0.82915    0.44113    0.59021    1.000
    Si4983   Si       0.86573    0.42055    0.59173    1.000
    N4984    N        0.81497    0.40736    0.53182    1.000
    N4985    N        0.84155    0.32876    0.70701    1.000
    N4986    N        0.84820    0.33033    0.64379    1.000
    Si4987   Si       0.84570    0.28868    0.72577    1.000
    N4988    N        0.84174    0.26566    0.68866    1.000
    Si4989   Si       0.86370    0.29289    0.65600    1.000
    Si4990   Si       0.81850    0.34152    0.67395    1.000
    N4991    N        0.81360    0.49820    0.71198    1.000
    N4992    N        0.83695    0.48683    0.64143    1.000
    N4993    N        0.86497    0.41933    0.63532    1.000
    Si4994   Si       0.83069    0.44423    0.63447    1.000
    N4995    N        0.83461    0.32551    0.84012    1.000
    Si4996   Si       0.84960    0.28267    0.84594    1.000
    N4997    N        0.81841    0.26274    0.82085    1.000
    Si4998   Si       0.87014    0.34751    0.85143    1.000
    N4999    N        0.81812    0.29373    0.75842    1.000
    N5000    N        0.84705    0.40506    0.81180    1.000
    Si5001   Si       0.84818    0.42364    0.85290    1.000
    Si5002   Si       0.83076    0.49753    0.83045    1.000
    N5003    N        0.85844    0.46478    0.83750    1.000
    Si5004   Si       0.81871    0.31781    0.95412    1.000
    Si5005   Si       0.86052    0.37276    0.91367    1.000
    N5006    N        0.83821    0.27630    0.94940    1.000
    N5007    N        0.83972    0.33309    0.91857    1.000
    Si5008   Si       0.86218    0.29429    0.90850    1.000
    N5009    N        0.84782    0.26217    0.88399    1.000
    N5010    N        0.84097    0.32696    0.99300    1.000
    Si5011   Si       0.86789    0.47877    0.95012    1.000
    N5012    N        0.86324    0.38700    0.87329    1.000
    Si5013   Si       0.86775    0.41863    0.97228    1.000
    N5014    N        0.84933    0.45850    0.98626    1.000
    N5015    N        0.83973    0.48056    0.91825    1.000
    N5016    N        0.84002    0.39769    0.94571    1.000
    N5017    N        0.83698    0.55229    0.03678    1.000
    Si5018   Si       0.85583    0.52861    0.06874    1.000
    Si5019   Si       0.84593    0.59496    0.04639    1.000
    N5020    N        0.82808    0.53948    0.10076    1.000
    N5021    N        0.86485    0.59923    0.08670    1.000
    Si5022   Si       0.85499    0.62749    0.11708    1.000
    N5023    N        0.81551    0.62492    0.03671    1.000
    N5024    N        0.83456    0.66016    0.09586    1.000
    N5025    N        0.83437    0.71523    0.05303    1.000
    Si5026   Si       0.82848    0.66529    0.05235    1.000
    Si5027   Si       0.86830    0.72974    0.07570    1.000
    N5028    N        0.85982    0.66695    0.01925    1.000
    Si5029   Si       0.86750    0.71357    0.01575    1.000
    Si5030   Si       0.83742    0.56096    0.13760    1.000
    N5031    N        0.82872    0.60378    0.14499    1.000
    N5032    N        0.86398    0.55693    0.23426    1.000
    N5033    N        0.82219    0.62951    0.20706    1.000
    Si5034   Si       0.83253    0.72381    0.18646    1.000
    Si5035   Si       0.81618    0.68313    0.12930    1.000
    N5036    N        0.84753    0.69481    0.15782    1.000
    N5037    N        0.84804    0.72871    0.22865    1.000
    N5038    N        0.83058    0.57850    0.35476    1.000
    Si5039   Si       0.84572    0.51479    0.31616    1.000
    N5040    N        0.81825    0.51993    0.28070    1.000
    Si5041   Si       0.82542    0.55058    0.25179    1.000
    N5042    N        0.81756    0.59359    0.26776    1.000
    Si5043   Si       0.81773    0.61778    0.36649    1.000
    Si5044   Si       0.87448    0.57390    0.34525    1.000
    N5045    N        0.81768    0.51150    0.34780    1.000
    Si5046   Si       0.83469    0.62893    0.24746    1.000
    N5047    N        0.82474    0.66752    0.26811    1.000
    Si5048   Si       0.82385    0.71250    0.26334    1.000
    N5049    N        0.83367    0.64647    0.33782    1.000
    N5050    N        0.84308    0.72849    0.30000    1.000
    Si5051   Si       0.87087    0.65037    0.36175    1.000
    N5052    N        0.83633    0.72791    0.36992    1.000
    N5053    N        0.82705    0.54404    0.41380    1.000
    Si5054   Si       0.87123    0.54959    0.41580    1.000
    N5055    N        0.84820    0.63371    0.39779    1.000
    N5056    N        0.83496    0.75456    0.43954    1.000
    Si5057   Si       0.86646    0.68405    0.48973    1.000
    Si5058   Si       0.82557    0.65240    0.43188    1.000
    N5059    N        0.86097    0.65438    0.45748    1.000
    N5060    N        0.85261    0.61335    0.52500    1.000
    Si5061   Si       0.84207    0.57214    0.51405    1.000
    N5062    N        0.82351    0.54695    0.54263    1.000
    Si5063   Si       0.85921    0.57762    0.61294    1.000
    N5064    N        0.87212    0.53995    0.50589    1.000
    Si5065   Si       0.84944    0.51267    0.53441    1.000
    Si5066   Si       0.81984    0.52903    0.62404    1.000
    N5067    N        0.83081    0.68352    0.51532    1.000
    Si5068   Si       0.83075    0.65949    0.59932    1.000
    Si5069   Si       0.82267    0.64323    0.53193    1.000
    N5070    N        0.86690    0.65516    0.57679    1.000
    N5071    N        0.82244    0.69872    0.61718    1.000
    Si5072   Si       0.82417    0.74152    0.62152    1.000
    N5073    N        0.86443    0.53748    0.62726    1.000
    N5074    N        0.84117    0.55927    0.70288    1.000
    N5075    N        0.84505    0.62596    0.70550    1.000
    Si5076   Si       0.85548    0.59036    0.72829    1.000
    Si5077   Si       0.85309    0.51825    0.71181    1.000
    Si5078   Si       0.85832    0.63204    0.66435    1.000
    N5079    N        0.82661    0.63467    0.63456    1.000
    N5080    N        0.87140    0.67364    0.66178    1.000
    N5081    N        0.83219    0.73771    0.66650    1.000
    Si5082   Si       0.83173    0.69328    0.65892    1.000
    Si5083   Si       0.83735    0.53779    0.78080    1.000
    N5084    N        0.82924    0.58027    0.76318    1.000
    N5085    N        0.85896    0.52918    0.81887    1.000
    N5086    N        0.82430    0.57558    0.86061    1.000
    Si5087   Si       0.86302    0.59308    0.85512    1.000
    N5088    N        0.86804    0.52338    0.75223    1.000
    N5089    N        0.86937    0.61052    0.81296    1.000
    N5090    N        0.84608    0.67392    0.83781    1.000
    N5091    N        0.84777    0.71877    0.79314    1.000
    Si5092   Si       0.85680    0.71776    0.83949    1.000
    N5093    N        0.83316    0.65493    0.77329    1.000
    N5094    N        0.82696    0.73647    0.86492    1.000
    Si5095   Si       0.86644    0.65543    0.80370    1.000
    N5096    N        0.83497    0.56275    0.97474    1.000
    Si5097   Si       0.82754    0.57611    0.93602    1.000
    N5098    N        0.86612    0.62737    0.88266    1.000
    N5099    N        0.87116    0.57483    0.92163    1.000
    N5100    N        0.86444    0.63605    0.95215    1.000
    N5101    N        0.83890    0.68263    0.90816    1.000
    N5102    N        0.84430    0.73242    0.98476    1.000
    Si5103   Si       0.82773    0.65275    0.94154    1.000
    Si5104   Si       0.83599    0.65475    0.87310    1.000
    N5105    N        0.82774    0.85327    0.05738    1.000
    N5106    N        0.84052    0.80085    0.01262    1.000
    N5107    N        0.85700    0.76367    0.10009    1.000
    Si5108   Si       0.86682    0.84658    0.07056    1.000
    N5109    N        0.84453    0.92929    0.02418    1.000
    Si5110   Si       0.85642    0.91253    0.06685    1.000
    N5111    N        0.82372    0.90505    0.09379    1.000
    Si5112   Si       0.85197    0.96720    0.04262    1.000
    Si5113   Si       0.82555    0.99895    0.10213    1.000
    N5114    N        0.81971    0.98979    0.05935    1.000
    N5115    N        0.86868    0.00843    0.11063    1.000
    N5116    N        0.85797    0.81090    0.21385    1.000
    Si5117   Si       0.82426    0.87432    0.17810    1.000
    N5118    N        0.82317    0.87526    0.22253    1.000
    Si5119   Si       0.82207    0.79708    0.19065    1.000
    Si5120   Si       0.83743    0.83931    0.24081    1.000
    N5121    N        0.83366    0.76260    0.16723    1.000
    N5122    N        0.86446    0.88013    0.16515    1.000
    Si5123   Si       0.82057    0.75928    0.12547    1.000
    N5124    N        0.81339    0.83327    0.16632    1.000
    N5125    N        0.84951    0.93365    0.20366    1.000
    Si5126   Si       0.82964    0.91586    0.23767    1.000
    Si5127   Si       0.84658    0.00169    0.23705    1.000
    N5128    N        0.82843    0.96331    0.12566    1.000
    N5129    N        0.85288    0.84974    0.28129    1.000
    N5130    N        0.85464    0.79352    0.31384    1.000
    Si5131   Si       0.82608    0.82113    0.29937    1.000
    N5132    N        0.83590    0.90802    0.32398    1.000
    Si5133   Si       0.84446    0.98828    0.35274    1.000
    Si5134   Si       0.85064    0.91847    0.36354    1.000
    N5135    N        0.86291    0.91104    0.26470    1.000
    Si5136   Si       0.86438    0.88725    0.30040    1.000
    N5137    N        0.83904    0.81032    0.37627    1.000
    N5138    N        0.84146    0.85306    0.43717    1.000
    Si5139   Si       0.83444    0.85289    0.39487    1.000
    N5140    N        0.86491    0.88026    0.38066    1.000
    N5141    N        0.87421    0.84270    0.50013    1.000
    N5142    N        0.86752    0.95165    0.44166    1.000
    N5143    N        0.82031    0.93105    0.39169    1.000
    Si5144   Si       0.85744    0.93567    0.48067    1.000
    Si5145   Si       0.83429    0.96311    0.41600    1.000
    N5146    N        0.83356    0.89842    0.48635    1.000
    N5147    N        0.83913    0.00250    0.39625    1.000
    Si5148   Si       0.84623    0.80724    0.60414    1.000
    N5149    N        0.83232    0.78307    0.50320    1.000
    Si5150   Si       0.85919    0.87969    0.51568    1.000
    N5151    N        0.85654    0.76425    0.60522    1.000
    Si5152   Si       0.87300    0.80083    0.50005    1.000
    Si5153   Si       0.86536    0.93433    0.54227    1.000
    Si5154   Si       0.82670    0.89577    0.59218    1.000
    N5155    N        0.84649    0.89702    0.55416    1.000
    N5156    N        0.84416    0.96141    0.51474    1.000
    N5157    N        0.81700    0.78864    0.71138    1.000
    N5158    N        0.82757    0.81198    0.64335    1.000
    Si5159   Si       0.84465    0.81772    0.73664    1.000
    Si5160   Si       0.84039    0.78045    0.67515    1.000
    N5161    N        0.84000    0.88100    0.63122    1.000
    N5162    N        0.84036    0.84824    0.69977    1.000
    Si5163   Si       0.82432    0.89829    0.67362    1.000
    Si5164   Si       0.82480    0.95997    0.63553    1.000
    N5165    N        0.86535    0.90484    0.68641    1.000
    N5166    N        0.86846    0.95889    0.63880    1.000
    N5167    N        0.84513    0.78292    0.76568    1.000
    N5168    N        0.82333    0.80324    0.83773    1.000
    Si5169   Si       0.86072    0.87175    0.80938    1.000
    N5170    N        0.81853    0.87062    0.82529    1.000
    Si5171   Si       0.86674    0.80058    0.83750    1.000
    N5172    N        0.81445    0.84448    0.75436    1.000
    Si5173   Si       0.82264    0.88768    0.75394    1.000
    N5174    N        0.86407    0.88913    0.76891    1.000
    N5175    N        0.83120    0.97590    0.76405    1.000
    Si5176   Si       0.86260    0.93636    0.84092    1.000
    N5177    N        0.81828    0.94424    0.83557    1.000
    Si5178   Si       0.86526    0.76033    0.95638    1.000
    N5179    N        0.84237    0.78676    0.93060    1.000
    N5180    N        0.83165    0.84695    0.89227    1.000
    Si5181   Si       0.86139    0.81985    0.90933    1.000
    N5182    N        0.84744    0.90232    0.92448    1.000
    Si5183   Si       0.85357    0.99118    0.98025    1.000
    Si5184   Si       0.85288    0.94625    0.91682    1.000
    N5185    N        0.81700    0.97121    0.91801    1.000
    Si5186   Si       0.85265    0.92046    0.98152    1.000
    N5187    N        0.86504    0.95499    0.95775    1.000
    N5188    N        0.89371    0.12677    0.06209    1.000
    Si5189   Si       0.88152    0.08546    0.05700    1.000
    N5190    N        0.92455    0.07128    0.05532    1.000
    N5191    N        0.92203    0.04725    0.11927    1.000
    N5192    N        0.88706    0.18472    0.02475    1.000
    N5193    N        0.90147    0.24201    0.05744    1.000
    Si5194   Si       0.91582    0.20767    0.08196    1.000
    Si5195   Si       0.88806    0.22910    0.01714    1.000
    N5196    N        0.87854    0.18827    0.09541    1.000
    Si5197   Si       0.92886    0.17419    0.01558    1.000
    Si5198   Si       0.87960    0.04797    0.12310    1.000
    Si5199   Si       0.88118    0.06696    0.19462    1.000
    N5200    N        0.92476    0.06789    0.19234    1.000
    Si5201   Si       0.90713    0.00927    0.23722    1.000
    N5202    N        0.87403    0.03036    0.21694    1.000
    N5203    N        0.88575    0.21734    0.22744    1.000
    N5204    N        0.90493    0.15137    0.20963    1.000
    N5205    N        0.89767    0.20049    0.16477    1.000
    Si5206   Si       0.89732    0.23592    0.18841    1.000
    Si5207   Si       0.92823    0.17858    0.18529    1.000
    Si5208   Si       0.89345    0.04178    0.34852    1.000
    Si5209   Si       0.90847    0.07323    0.28360    1.000
    N5210    N        0.91336    0.07622    0.32815    1.000
    N5211    N        0.92082    0.03335    0.27341    1.000
    N5212    N        0.92817    0.10121    0.25691    1.000
    N5213    N        0.91793    0.00677    0.33673    1.000
    Si5214   Si       0.91864    0.17998    0.31419    1.000
    N5215    N        0.91642    0.14564    0.34097    1.000
    N5216    N        0.87979    0.19927    0.31055    1.000
    Si5217   Si       0.91243    0.14300    0.25118    1.000
    Si5218   Si       0.92352    0.21108    0.24855    1.000
    N5219    N        0.92992    0.24718    0.27184    1.000
    N5220    N        0.87143    0.14272    0.26655    1.000
    N5221    N        0.92901    0.17568    0.27296    1.000
    Si5222   Si       0.87383    0.02211    0.42210    1.000
    N5223    N        0.89464    0.04406    0.39240    1.000
    Si5224   Si       0.92181    0.03135    0.47658    1.000
    Si5225   Si       0.91902    0.10341    0.47116    1.000
    N5226    N        0.87532    0.10030    0.46348    1.000
    N5227    N        0.88825    0.17049    0.47090    1.000
    Si5228   Si       0.92387    0.24853    0.46520    1.000
    N5229    N        0.88721    0.23980    0.37546    1.000
    N5230    N        0.90526    0.17682    0.40769    1.000
    Si5231   Si       0.92446    0.17672    0.44610    1.000
    N5232    N        0.89561    0.23695    0.49576    1.000
    Si5233   Si       0.91269    0.07203    0.53641    1.000
    N5234    N        0.89412    0.07935    0.57639    1.000
    Si5235   Si       0.91552    0.11102    0.59976    1.000
    N5236    N        0.91687    0.10949    0.51514    1.000
    N5237    N        0.89499    0.04809    0.50662    1.000
    Si5238   Si       0.91707    0.14965    0.53596    1.000
    N5239    N        0.87917    0.17226    0.53852    1.000
    N5240    N        0.92841    0.14448    0.57861    1.000
    Si5241   Si       0.87610    0.19773    0.50266    1.000
    N5242    N        0.87103    0.05324    0.71587    1.000
    Si5243   Si       0.89616    0.11939    0.67481    1.000
    Si5244   Si       0.89207    0.04873    0.67795    1.000
    N5245    N        0.91765    0.08341    0.67938    1.000
    N5246    N        0.91187    0.01085    0.68498    1.000
    Si5247   Si       0.90146    0.05305    0.74827    1.000
    N5248    N        0.87339    0.25609    0.63522    1.000
    N5249    N        0.89432    0.13120    0.63212    1.000
    N5250    N        0.91071    0.21120    0.72644    1.000
    N5251    N        0.91168    0.19851    0.62172    1.000
    Si5252   Si       0.87890    0.17185    0.63300    1.000
    Si5253   Si       0.88552    0.18190    0.70803    1.000
    Si5254   Si       0.91359    0.24262    0.62899    1.000
    N5255    N        0.91628    0.15242    0.69347    1.000
    N5256    N        0.88777    0.08304    0.77890    1.000
    Si5257   Si       0.90329    0.08122    0.82084    1.000
    N5258    N        0.89583    0.01385    0.76658    1.000
    N5259    N        0.92819    0.11721    0.82921    1.000
    Si5260   Si       0.91044    0.01214    0.80744    1.000
    N5261    N        0.87549    0.01196    0.83410    1.000
    Si5262   Si       0.92829    0.11953    0.87177    1.000
    N5263    N        0.86996    0.07825    0.84885    1.000
    N5264    N        0.88003    0.21259    0.78754    1.000
    Si5265   Si       0.88662    0.22219    0.82851    1.000
    Si5266   Si       0.90881    0.23717    0.76190    1.000
    N5267    N        0.92414    0.20938    0.84356    1.000
    N5268    N        0.89021    0.09550    0.97461    1.000
    Si5269   Si       0.88385    0.05500    0.99023    1.000
    Si5270   Si       0.93006    0.11562    0.97262    1.000
    N5271    N        0.92173    0.03509    0.99542    1.000
    Si5272   Si       0.88780    0.16016    0.92084    1.000
    N5273    N        0.92221    0.14739    0.94487    1.000
    N5274    N        0.88703    0.20205    0.90241    1.000
    N5275    N        0.88943    0.13248    0.88634    1.000
    Si5276   Si       0.92754    0.21593    0.88585    1.000
    N5277    N        0.90215    0.23330    0.97624    1.000
    Si5278   Si       0.89811    0.34326    0.07339    1.000
    N5279    N        0.92015    0.34868    0.11188    1.000
    N5280    N        0.90126    0.29753    0.00127    1.000
    Si5281   Si       0.87939    0.26844    0.08424    1.000
    N5282    N        0.87754    0.38080    0.06257    1.000
    N5283    N        0.87188    0.30891    0.06374    1.000
    N5284    N        0.89057    0.44544    0.03598    1.000
    Si5285   Si       0.90310    0.40562    0.03609    1.000
    N5286    N        0.91607    0.43878    0.10670    1.000
    N5287    N        0.90361    0.27985    0.11965    1.000
    N5288    N        0.88045    0.37431    0.22971    1.000
    Si5289   Si       0.90041    0.36476    0.14759    1.000
    N5290    N        0.90975    0.30698    0.23802    1.000
    N5291    N        0.89433    0.33348    0.17471    1.000
    Si5292   Si       0.88263    0.29788    0.15236    1.000
    Si5293   Si       0.88124    0.33245    0.21589    1.000
    Si5294   Si       0.92211    0.38108    0.24025    1.000
    N5295    N        0.92196    0.39684    0.16638    1.000
    N5296    N        0.89511    0.46812    0.21462    1.000
    Si5297   Si       0.91297    0.43715    0.14806    1.000
    N5298    N        0.88825    0.29563    0.30442    1.000
    Si5299   Si       0.91388    0.30802    0.33884    1.000
    Si5300   Si       0.89719    0.27598    0.26446    1.000
    Si5301   Si       0.90668    0.45861    0.25620    1.000
    Si5302   Si       0.88432    0.45796    0.36492    1.000
    N5303    N        0.89895    0.50424    0.26365    1.000
    N5304    N        0.92736    0.46280    0.36569    1.000
    N5305    N        0.87288    0.41870    0.34485    1.000
    N5306    N        0.89433    0.30533    0.37837    1.000
    N5307    N        0.89919    0.26903    0.43258    1.000
    Si5308   Si       0.91774    0.27018    0.39171    1.000
    Si5309   Si       0.91920    0.37768    0.43381    1.000
    Si5310   Si       0.88758    0.30963    0.44428    1.000
    N5311    N        0.92565    0.33360    0.44555    1.000
    N5312    N        0.91049    0.38396    0.39146    1.000
    Si5313   Si       0.88638    0.47565    0.43847    1.000
    Si5314   Si       0.88644    0.42079    0.48713    1.000
    N5315    N        0.88330    0.39356    0.45392    1.000
    N5316    N        0.92667    0.46213    0.43868    1.000
    N5317    N        0.91334    0.28691    0.53309    1.000
    Si5318   Si       0.91563    0.29710    0.57519    1.000
    N5319    N        0.87686    0.31360    0.58437    1.000
    Si5320   Si       0.87870    0.27222    0.51289    1.000
    Si5321   Si       0.87362    0.34701    0.61310    1.000
    N5322    N        0.92466    0.43501    0.50058    1.000
    N5323    N        0.90001    0.43574    0.57257    1.000
    Si5324   Si       0.90892    0.47713    0.57908    1.000
    Si5325   Si       0.91802    0.41472    0.53860    1.000
    N5326    N        0.88492    0.39299    0.52126    1.000
    N5327    N        0.87693    0.50099    0.56450    1.000
    N5328    N        0.91224    0.48004    0.62313    1.000
    N5329    N        0.91220    0.36295    0.63022    1.000
    N5330    N        0.90021    0.30997    0.67748    1.000
    Si5331   Si       0.88218    0.34455    0.70091    1.000
    N5332    N        0.89904    0.33770    0.73891    1.000
    N5333    N        0.88257    0.26967    0.74099    1.000
    N5334    N        0.89195    0.38632    0.69199    1.000
    Si5335   Si       0.87964    0.50113    0.64422    1.000
    Si5336   Si       0.89801    0.39918    0.65199    1.000
    Si5337   Si       0.92702    0.41244    0.70370    1.000
    N5338    N        0.88768    0.50037    0.68909    1.000
    Si5339   Si       0.92838    0.49016    0.70357    1.000
    N5340    N        0.92579    0.45130    0.72354    1.000
    N5341    N        0.93205    0.42507    0.66156    1.000
    N5342    N        0.90299    0.35908    0.82402    1.000
    Si5343   Si       0.91764    0.28876    0.85831    1.000
    N5344    N        0.88818    0.26509    0.83442    1.000
    Si5345   Si       0.91562    0.29910    0.74647    1.000
    Si5346   Si       0.92702    0.36756    0.75192    1.000
    N5347    N        0.91921    0.49785    0.85300    1.000
    N5348    N        0.91542    0.42584    0.82984    1.000
    Si5349   Si       0.89158    0.39754    0.80915    1.000
    Si5350   Si       0.89974    0.46828    0.82756    1.000
    N5351    N        0.90952    0.40266    0.77031    1.000
    N5352    N        0.90787    0.47505    0.78440    1.000
    Si5353   Si       0.92621    0.44089    0.76566    1.000
    Si5354   Si       0.87963    0.27242    0.97146    1.000
    Si5355   Si       0.92193    0.32689    0.93598    1.000
    N5356    N        0.89551    0.29295    0.93564    1.000
    N5357    N        0.89992    0.36688    0.93204    1.000
    N5358    N        0.88580    0.31455    0.87490    1.000
    Si5359   Si       0.92448    0.38343    0.96580    1.000
    N5360    N        0.89546    0.39267    0.99437    1.000
    N5361    N        0.89277    0.44236    0.94810    1.000
    Si5362   Si       0.89909    0.57254    0.10039    1.000
    N5363    N        0.89695    0.53614    0.07743    1.000
    N5364    N        0.88377    0.51720    0.01068    1.000
    N5365    N        0.87440    0.59953    0.01488    1.000
    N5366    N        0.92874    0.60575    0.10056    1.000
    N5367    N        0.88519    0.74732    0.03960    1.000
    N5368    N        0.89343    0.70492    0.09912    1.000
    N5369    N        0.92841    0.66165    0.04905    1.000
    Si5370   Si       0.92897    0.69320    0.08086    1.000
    N5371    N        0.88179    0.55859    0.14060    1.000
    Si5372   Si       0.87869    0.51653    0.22463    1.000
    Si5373   Si       0.91282    0.55934    0.16908    1.000
    N5374    N        0.91127    0.52543    0.19657    1.000
    Si5375   Si       0.89360    0.58657    0.23753    1.000
    N5376    N        0.91368    0.59009    0.19777    1.000
    Si5377   Si       0.89224    0.73264    0.23376    1.000
    Si5378   Si       0.88513    0.68750    0.13924    1.000
    N5379    N        0.91698    0.69423    0.16771    1.000
    N5380    N        0.89061    0.64515    0.13422    1.000
    N5381    N        0.90826    0.69386    0.23811    1.000
    N5382    N        0.89342    0.61439    0.34511    1.000
    Si5383   Si       0.90835    0.53593    0.28976    1.000
    N5384    N        0.92427    0.57028    0.26592    1.000
    Si5385   Si       0.93047    0.61838    0.36644    1.000
    N5386    N        0.87341    0.54803    0.31121    1.000
    N5387    N        0.87821    0.62511    0.24784    1.000
    N5388    N        0.89875    0.75809    0.27059    1.000
    N5389    N        0.89410    0.68751    0.36397    1.000
    Si5390   Si       0.91278    0.65191    0.25117    1.000
    N5391    N        0.89585    0.75786    0.34534    1.000
    Si5392   Si       0.87410    0.75632    0.30567    1.000
    Si5393   Si       0.88046    0.62481    0.42864    1.000
    N5394    N        0.88714    0.51974    0.44143    1.000
    N5395    N        0.89115    0.55038    0.37630    1.000
    Si5396   Si       0.89465    0.55199    0.47138    1.000
    N5397    N        0.88210    0.58342    0.44126    1.000
    N5398    N        0.87996    0.72853    0.48186    1.000
    Si5399   Si       0.87930    0.72727    0.37415    1.000
    N5400    N        0.89733    0.74219    0.41243    1.000
    Si5401   Si       0.87692    0.75617    0.44822    1.000
    N5402    N        0.91831    0.63263    0.40520    1.000
    Si5403   Si       0.88271    0.62105    0.55394    1.000
    N5404    N        0.88289    0.58542    0.57935    1.000
    Si5405   Si       0.92650    0.58595    0.58326    1.000
    N5406    N        0.92731    0.61802    0.55014    1.000
    Si5407   Si       0.89499    0.75261    0.59449    1.000
    N5408    N        0.88849    0.72682    0.55901    1.000
    Si5409   Si       0.89386    0.68441    0.55887    1.000
    N5410    N        0.90044    0.67421    0.51775    1.000
    Si5411   Si       0.90121    0.73824    0.51827    1.000
    N5412    N        0.92045    0.73293    0.62424    1.000
    Si5413   Si       0.92322    0.59980    0.65511    1.000
    N5414    N        0.88001    0.60020    0.64454    1.000
    N5415    N        0.91655    0.63129    0.68711    1.000
    N5416    N        0.89615    0.59464    0.74644    1.000
    Si5417   Si       0.92765    0.61722    0.72666    1.000
    Si5418   Si       0.91335    0.67238    0.67132    1.000
    N5419    N        0.91869    0.70249    0.70186    1.000
    Si5420   Si       0.90394    0.74299    0.70579    1.000
    Si5421   Si       0.90005    0.58826    0.78987    1.000
    Si5422   Si       0.89930    0.53401    0.83745    1.000
    N5423    N        0.91880    0.54585    0.79748    1.000
    Si5424   Si       0.90791    0.51459    0.76903    1.000
    N5425    N        0.89916    0.56928    0.85995    1.000
    N5426    N        0.90829    0.66609    0.81099    1.000
    N5427    N        0.89183    0.70946    0.86602    1.000
    Si5428   Si       0.92359    0.68968    0.84546    1.000
    N5429    N        0.89844    0.74352    0.74929    1.000
    Si5430   Si       0.87206    0.75139    0.78087    1.000
    N5431    N        0.93669    0.65023    0.75244    1.000
    N5432    N        0.91409    0.56394    0.97588    1.000
    Si5433   Si       0.90419    0.55068    0.93408    1.000
    Si5434   Si       0.92018    0.52008    0.98763    1.000
    Si5435   Si       0.88506    0.61643    0.91935    1.000
    N5436    N        0.89599    0.51070    0.94752    1.000
    N5437    N        0.92688    0.61578    0.90941    1.000
    Si5438   Si       0.87219    0.55922    0.99995    1.000
    N5439    N        0.92248    0.63933    0.98613    1.000
    N5440    N        0.88720    0.73439    0.93021    1.000
    N5441    N        0.91425    0.67998    0.92483    1.000
    Si5442   Si       0.87760    0.63742    0.99302    1.000
    N5443    N        0.90735    0.70436    0.99072    1.000
    Si5444   Si       0.88103    0.69894    0.90532    1.000
    Si5445   Si       0.91989    0.71444    0.95188    1.000
    Si5446   Si       0.88632    0.79449    0.09521    1.000
    N5447    N        0.89092    0.81204    0.05635    1.000
    Si5448   Si       0.88090    0.78470    0.01993    1.000
    N5449    N        0.92346    0.83953    0.00218    1.000
    N5450    N        0.87575    0.83303    0.11245    1.000
    N5451    N        0.92533    0.78057    0.10837    1.000
    Si5452   Si       0.92929    0.82922    0.04388    1.000
    N5453    N        0.88696    0.88453    0.06416    1.000
    Si5454   Si       0.91968    0.99776    0.01907    1.000
    N5455    N        0.87553    0.99056    0.01744    1.000
    Si5456   Si       0.92767    0.89716    0.06038    1.000
    Si5457   Si       0.87341    0.96561    0.11819    1.000
    N5458    N        0.87159    0.95172    0.07739    1.000
    Si5459   Si       0.89470    0.85218    0.14756    1.000
    Si5460   Si       0.90084    0.80193    0.20774    1.000
    N5461    N        0.91098    0.81829    0.16880    1.000
    N5462    N        0.92802    0.87897    0.13532    1.000
    N5463    N        0.91311    0.76009    0.20617    1.000
    Si5464   Si       0.89161    0.93337    0.24188    1.000
    N5465    N        0.91221    0.91659    0.20633    1.000
    Si5466   Si       0.87954    0.91968    0.17782    1.000
    N5467    N        0.89749    0.94581    0.14683    1.000
    Si5468   Si       0.90234    0.86812    0.36173    1.000
    N5469    N        0.90754    0.82350    0.36608    1.000
    Si5470   Si       0.87505    0.79765    0.35417    1.000
    N5471    N        0.90094    0.88280    0.32143    1.000
    Si5472   Si       0.91360    0.96833    0.35693    1.000
    N5473    N        0.87992    0.97618    0.24675    1.000
    N5474    N        0.92593    0.93010    0.27040    1.000
    N5475    N        0.87280    0.95550    0.35731    1.000
    N5476    N        0.91280    0.87203    0.45162    1.000
    Si5477   Si       0.87880    0.84445    0.45685    1.000
    N5478    N        0.88608    0.79944    0.45738    1.000
    N5479    N        0.90460    0.00576    0.44578    1.000
    N5480    N        0.93104    0.96814    0.39647    1.000
    Si5481   Si       0.92217    0.90186    0.48170    1.000
    Si5482   Si       0.90910    0.96400    0.43471    1.000
    N5483    N        0.89937    0.78025    0.52397    1.000
    N5484    N        0.88178    0.83133    0.60320    1.000
    Si5485   Si       0.92283    0.82921    0.59658    1.000
    N5486    N        0.89170    0.94945    0.57131    1.000
    Si5487   Si       0.89103    0.97785    0.60595    1.000
    N5488    N        0.88832    0.91390    0.50604    1.000
    Si5489   Si       0.87968    0.86586    0.70395    1.000
    N5490    N        0.89691    0.84282    0.67130    1.000
    Si5491   Si       0.91292    0.80910    0.69763    1.000
    N5492    N        0.88994    0.82477    0.73440    1.000
    Si5493   Si       0.87899    0.86205    0.63639    1.000
    N5494    N        0.88308    0.77880    0.68591    1.000
    Si5495   Si       0.92185    0.97490    0.70657    1.000
    N5496    N        0.90534    0.89682    0.63595    1.000
    N5497    N        0.89256    0.95460    0.73343    1.000
    Si5498   Si       0.89068    0.92837    0.66033    1.000
    N5499    N        0.91325    0.88554    0.72386    1.000
    N5500    N        0.92761    0.94823    0.67220    1.000
    Si5501   Si       0.90734    0.82112    0.77519    1.000
    N5502    N        0.87856    0.83166    0.80733    1.000
    N5503    N        0.88204    0.76196    0.82326    1.000
    Si5504   Si       0.92751    0.76427    0.82581    1.000
    N5505    N        0.93398    0.78437    0.78746    1.000
    N5506    N        0.88235    0.89573    0.84022    1.000
    N5507    N        0.88129    0.95302    0.80390    1.000
    Si5508   Si       0.92333    0.94380    0.81433    1.000
    Si5509   Si       0.89756    0.91405    0.75355    1.000
    Si5510   Si       0.91737    0.89219    0.86680    1.000
    Si5511   Si       0.87422    0.97680    0.76397    1.000
    N5512    N        0.92933    0.91501    0.78173    1.000
    N5513    N        0.88485    0.80924    0.87488    1.000
    N5514    N        0.88911    0.83930    0.93885    1.000
    N5515    N        0.89635    0.78124    0.97879    1.000
    Si5516   Si       0.92121    0.81462    0.96280    1.000
    Si5517   Si       0.92811    0.81370    0.87962    1.000
    Si5518   Si       0.88404    0.88250    0.93341    1.000
    Si5519   Si       0.88315    0.99422    0.87399    1.000
    N5520    N        0.92603    0.99820    0.87737    1.000
    Si5521   Si       0.92868    0.88028    0.99092    1.000
    N5522    N        0.91770    0.89659    0.90951    1.000
    N5523    N        0.89019    0.89583    0.97551    1.000
    N5524    N        0.87093    0.95316    0.87875    1.000
    N5525    N        0.98266    0.03623    0.09063    1.000
    N5526    N        0.97006    0.11421    0.07689    1.000
    Si5527   Si       0.94058    0.03897    0.07907    1.000
    Si5528   Si       0.93611    0.11569    0.05350    1.000
    N5529    N        0.93893    0.13113    0.01302    1.000
    N5530    N        0.98772    0.04668    0.01993    1.000
    N5531    N        0.94256    0.18582    0.05620    1.000
    N5532    N        0.94086    0.22353    0.11178    1.000
    Si5533   Si       0.98466    0.19813    0.05994    1.000
    N5534    N        0.98158    0.05331    0.22688    1.000
    Si5535   Si       0.97571    0.01556    0.20416    1.000
    Si5536   Si       0.94514    0.05884    0.15632    1.000
    Si5537   Si       0.95334    0.08517    0.22412    1.000
    N5538    N        0.97280    0.02493    0.16161    1.000
    N5539    N        0.96909    0.09253    0.14605    1.000
    N5540    N        0.97274    0.12073    0.20871    1.000
    Si5541   Si       0.98320    0.13014    0.16493    1.000
    Si5542   Si       0.99354    0.01230    0.12664    1.000
    N5543    N        0.94790    0.20791    0.21031    1.000
    Si5544   Si       0.97053    0.24108    0.19543    1.000
    N5545    N        0.95863    0.16674    0.15682    1.000
    Si5546   Si       0.97247    0.20158    0.13279    1.000
    N5547    N        0.98884    0.23501    0.15362    1.000
    N5548    N        0.93327    0.25720    0.17402    1.000
    Si5549   Si       0.94785    0.01819    0.30640    1.000
    N5550    N        0.97777    0.11188    0.33162    1.000
    N5551    N        0.97889    0.04429    0.31711    1.000
    Si5552   Si       0.93538    0.10675    0.34583    1.000
    N5553    N        0.94336    0.20238    0.34385    1.000
    Si5554   Si       0.98442    0.21590    0.33923    1.000
    N5555    N        0.96277    0.01840    0.48194    1.000
    Si5556   Si       0.96299    0.11727    0.41569    1.000
    N5557    N        0.96701    0.02669    0.41362    1.000
    Si5558   Si       0.98125    0.04974    0.45102    1.000
    N5559    N        0.93760    0.09328    0.38756    1.000
    N5560    N        0.93595    0.06669    0.45394    1.000
    Si5561   Si       0.93304    0.05417    0.41108    1.000
    N5562    N        0.94749    0.21164    0.45639    1.000
    Si5563   Si       0.93178    0.17244    0.37317    1.000
    Si5564   Si       0.98733    0.21277    0.47667    1.000
    Si5565   Si       0.97054    0.14641    0.48242    1.000
    N5566    N        0.96756    0.15147    0.38768    1.000
    N5567    N        0.94237    0.13459    0.45109    1.000
    N5568    N        0.95154    0.09006    0.60619    1.000
    N5569    N        0.95076    0.05527    0.54723    1.000
    Si5570   Si       0.97656    0.06694    0.58008    1.000
    N5571    N        0.98427    0.03012    0.60197    1.000
    N5572    N        0.94930    0.16733    0.51418    1.000
    N5573    N        0.96270    0.20074    0.57441    1.000
    Si5574   Si       0.96676    0.24437    0.57628    1.000
    Si5575   Si       0.94494    0.17462    0.60462    1.000
    Si5576   Si       0.98045    0.18264    0.54064    1.000
    Si5577   Si       0.95533    0.07761    0.69735    1.000
    N5578    N        0.94644    0.05479    0.73296    1.000
    N5579    N        0.97205    0.11584    0.70921    1.000
    N5580    N        0.98427    0.06122    0.67004    1.000
    N5581    N        0.97464    0.18135    0.71916    1.000
    N5582    N        0.96711    0.16071    0.64395    1.000
    Si5583   Si       0.95900    0.15268    0.68689    1.000
    N5584    N        0.93726    0.25329    0.66420    1.000
    Si5585   Si       0.94016    0.18453    0.74445    1.000
    Si5586   Si       0.94205    0.03698    0.86562    1.000
    N5587    N        0.98698    0.11837    0.78212    1.000
    N5588    N        0.98493    0.03309    0.86245    1.000
    N5589    N        0.92860    0.04654    0.82524    1.000
    Si5590   Si       0.95447    0.13787    0.80096    1.000
    N5591    N        0.97638    0.16864    0.82386    1.000
    Si5592   Si       0.95772    0.20740    0.81849    1.000
    N5593    N        0.94804    0.21271    0.77575    1.000
    N5594    N        0.98382    0.24517    0.82240    1.000
    N5595    N        0.92962    0.15119    0.76707    1.000
    N5596    N        0.94247    0.07788    0.88208    1.000
    N5597    N        0.97948    0.01705    0.95364    1.000
    Si5598   Si       0.96071    0.04492    0.98473    1.000
    N5599    N        0.95996    0.08347    0.96501    1.000
    Si5600   Si       0.98920    0.07623    0.87609    1.000
    N5601    N        0.95574    0.14897    0.88510    1.000
    Si5602   Si       0.94194    0.22476    0.95858    1.000
    Si5603   Si       0.95654    0.16443    0.92544    1.000
    N5604    N        0.95130    0.20598    0.92089    1.000
    N5605    N        0.95414    0.19604    0.98686    1.000
    Si5606   Si       0.96384    0.36909    0.04981    1.000
    N5607    N        0.97904    0.30328    0.01377    1.000
    Si5608   Si       0.96505    0.33644    0.11530    1.000
    Si5609   Si       0.93843    0.31818    0.00919    1.000
    N5610    N        0.98386    0.37739    0.01091    1.000
    N5611    N        0.98941    0.35173    0.07917    1.000
    N5612    N        0.93226    0.33885    0.04679    1.000
    N5613    N        0.94407    0.40744    0.05355    1.000
    Si5614   Si       0.97016    0.48828    0.02019    1.000
    N5615    N        0.95062    0.47837    0.05964    1.000
    Si5616   Si       0.95015    0.44161    0.08024    1.000
    N5617    N        0.98400    0.44160    0.10924    1.000
    N5618    N        0.97328    0.29542    0.12695    1.000
    Si5619   Si       0.95253    0.31426    0.23657    1.000
    N5620    N        0.97571    0.28132    0.21723    1.000
    N5621    N        0.95160    0.35474    0.21813    1.000
    N5622    N        0.97827    0.35647    0.15080    1.000
    Si5623   Si       0.94033    0.26376    0.13284    1.000
    Si5624   Si       0.96119    0.37965    0.18292    1.000
    Si5625   Si       0.97426    0.43574    0.23166    1.000
    N5626    N        0.98967    0.50671    0.12297    1.000
    Si5627   Si       0.93047    0.48685    0.19878    1.000
    N5628    N        0.93185    0.42274    0.24174    1.000
    Si5629   Si       0.97949    0.46972    0.14260    1.000
    N5630    N        0.93885    0.46860    0.15984    1.000
    N5631    N        0.96404    0.47906    0.22298    1.000
    N5632    N        0.98542    0.41171    0.19622    1.000
    N5633    N        0.95980    0.30725    0.28027    1.000
    Si5634   Si       0.95926    0.34488    0.30167    1.000
    N5635    N        0.94403    0.27588    0.34162    1.000
    Si5636   Si       0.95748    0.26777    0.29770    1.000
    N5637    N        0.94056    0.34414    0.34026    1.000
    N5638    N        0.93303    0.37408    0.28207    1.000
    Si5639   Si       0.94422    0.38138    0.36435    1.000
    Si5640   Si       0.98033    0.27977    0.37026    1.000
    N5641    N        0.95307    0.41290    0.33323    1.000
    Si5642   Si       0.95085    0.45683    0.33085    1.000
    Si5643   Si       0.94834    0.41446    0.28797    1.000
    N5644    N        0.98732    0.47937    0.32125    1.000
    N5645    N        0.98753    0.41611    0.26771    1.000
    N5646    N        0.93080    0.45481    0.29231    1.000
    N5647    N        0.95431    0.27862    0.47621    1.000
    Si5648   Si       0.97456    0.36786    0.48113    1.000
    Si5649   Si       0.96139    0.30727    0.44415    1.000
    N5650    N        0.95838    0.28799    0.40573    1.000
    N5651    N        0.98574    0.37654    0.38045    1.000
    Si5652   Si       0.95133    0.43873    0.46680    1.000
    Si5653   Si       0.94750    0.47212    0.40359    1.000
    N5654    N        0.95305    0.39480    0.45604    1.000
    N5655    N        0.98378    0.44710    0.41173    1.000
    Si5656   Si       0.95163    0.29819    0.51552    1.000
    Si5657   Si       0.96578    0.36241    0.55142    1.000
    N5658    N        0.95526    0.34285    0.51305    1.000
    N5659    N        0.94301    0.33349    0.58143    1.000
    N5660    N        0.97571    0.28038    0.54590    1.000
    N5661    N        0.93155    0.26090    0.59425    1.000
    N5662    N        0.98650    0.37171    0.62012    1.000
    N5663    N        0.95616    0.40500    0.55789    1.000
    N5664    N        0.94986    0.48146    0.56110    1.000
    Si5665   Si       0.97263    0.44380    0.56975    1.000
    N5666    N        0.97664    0.44226    0.61317    1.000
    Si5667   Si       0.95138    0.34445    0.62409    1.000
    N5668    N        0.95221    0.30260    0.72161    1.000
    N5669    N        0.96838    0.31478    0.65248    1.000
    Si5670   Si       0.94080    0.29357    0.67903    1.000
    Si5671   Si       0.94647    0.45992    0.64095    1.000
    N5672    N        0.95777    0.48480    0.67335    1.000
    N5673    N        0.95451    0.38774    0.72446    1.000
    N5674    N        0.95244    0.34447    0.77616    1.000
    N5675    N        0.94858    0.30623    0.83277    1.000
    Si5676   Si       0.94502    0.34725    0.81934    1.000
    Si5677   Si       0.96575    0.28000    0.80310    1.000
    N5678    N        0.97359    0.38036    0.83219    1.000
    Si5679   Si       0.98094    0.32405    0.74791    1.000
    N5680    N        0.93057    0.27408    0.77875    1.000
    N5681    N        0.96730    0.43747    0.78387    1.000
    Si5682   Si       0.96096    0.42252    0.82530    1.000
    N5683    N        0.97437    0.44514    0.85765    1.000
    N5684    N        0.96710    0.25948    0.95097    1.000
    N5685    N        0.95615    0.31838    0.91132    1.000
    Si5686   Si       0.96316    0.27485    0.91185    1.000
    N5687    N        0.94122    0.34226    0.97192    1.000
    N5688    N        0.93205    0.26000    0.88708    1.000
    N5689    N        0.95183    0.45979    0.91398    1.000
    Si5690   Si       0.95284    0.48305    0.87705    1.000
    Si5691   Si       0.98125    0.43013    0.89849    1.000
    N5692    N        0.94285    0.48077    0.98387    1.000
    Si5693   Si       0.93389    0.45293    0.95267    1.000
    N5694    N        0.98252    0.38707    0.90001    1.000
    N5695    N        0.95484    0.41535    0.96437    1.000
    N5696    N        0.96151    0.54819    0.07941    1.000
    Si5697   Si       0.97049    0.56362    0.03945    1.000
    N5698    N        0.94930    0.52975    0.02190    1.000
    N5699    N        0.94548    0.59753    0.03099    1.000
    Si5700   Si       0.94636    0.62546    0.06355    1.000
    Si5701   Si       0.97832    0.54802    0.11889    1.000
    Si5702   Si       0.93375    0.51911    0.06406    1.000
    N5703    N        0.98879    0.63297    0.06662    1.000
    N5704    N        0.97188    0.69432    0.00251    1.000
    N5705    N        0.95485    0.67105    0.10777    1.000
    N5706    N        0.95056    0.72576    0.06311    1.000
    Si5707   Si       0.98546    0.71727    0.03664    1.000
    Si5708   Si       0.93134    0.67380    0.00889    1.000
    N5709    N        0.97753    0.58890    0.22420    1.000
    Si5710   Si       0.95170    0.61213    0.19644    1.000
    N5711    N        0.96564    0.62411    0.15689    1.000
    N5712    N        0.95248    0.55687    0.15058    1.000
    N5713    N        0.94111    0.64678    0.21866    1.000
    Si5714   Si       0.93474    0.63884    0.12989    1.000
    Si5715   Si       0.93600    0.68686    0.20476    1.000
    N5716    N        0.96994    0.71141    0.20796    1.000
    Si5717   Si       0.95667    0.75371    0.20632    1.000
    Si5718   Si       0.96686    0.57506    0.26389    1.000
    Si5719   Si       0.97753    0.52044    0.31062    1.000
    N5720    N        0.98009    0.53207    0.27038    1.000
    N5721    N        0.93638    0.52890    0.32362    1.000
    N5722    N        0.95170    0.58152    0.36279    1.000
    N5723    N        0.98993    0.60302    0.28871    1.000
    Si5724   Si       0.93241    0.54087    0.36512    1.000
    Si5725   Si       0.93613    0.68643    0.36378    1.000
    Si5726   Si       0.97017    0.63908    0.30829    1.000
    N5727    N        0.95975    0.64996    0.35129    1.000
    N5728    N        0.95143    0.71666    0.33606    1.000
    Si5729   Si       0.93939    0.75901    0.33891    1.000
    N5730    N        0.93288    0.64572    0.28895    1.000
    N5731    N        0.97243    0.76309    0.25043    1.000
    N5732    N        0.93649    0.55480    0.47899    1.000
    Si5733   Si       0.97930    0.55447    0.48290    1.000
    N5734    N        0.95498    0.51644    0.39366    1.000
    Si5735   Si       0.95073    0.65733    0.42438    1.000
    Si5736   Si       0.94173    0.74068    0.41514    1.000
    N5737    N        0.94906    0.65436    0.46595    1.000
    Si5738   Si       0.97028    0.75098    0.49284    1.000
    N5739    N        0.94729    0.69649    0.40415    1.000
    N5740    N        0.98714    0.63694    0.41172    1.000
    N5741    N        0.95893    0.75361    0.45120    1.000
    Si5742   Si       0.98259    0.63563    0.48502    1.000
    Si5743   Si       0.96829    0.52140    0.55704    1.000
    N5744    N        0.94072    0.54552    0.57918    1.000
    N5745    N        0.94539    0.60440    0.61725    1.000
    N5746    N        0.98565    0.55075    0.52571    1.000
    Si5747   Si       0.99228    0.60830    0.61652    1.000
    N5748    N        0.94108    0.72439    0.51081    1.000
    Si5749   Si       0.95855    0.64884    0.55676    1.000
    N5750    N        0.97560    0.66326    0.52021    1.000
    Si5751   Si       0.94891    0.70009    0.61368    1.000
    N5752    N        0.98251    0.72844    0.61433    1.000
    Si5753   Si       0.94044    0.67996    0.50073    1.000
    N5754    N        0.93437    0.68113    0.57787    1.000
    N5755    N        0.99218    0.63625    0.58129    1.000
    Si5756   Si       0.97695    0.56959    0.68850    1.000
    N5757    N        0.96790    0.60040    0.71863    1.000
    N5758    N        0.94273    0.51426    0.73902    1.000
    N5759    N        0.93436    0.56384    0.67437    1.000
    Si5760   Si       0.94774    0.68579    0.73108    1.000
    N5761    N        0.98262    0.66866    0.71210    1.000
    Si5762   Si       0.98903    0.67333    0.66697    1.000
    N5763    N        0.95002    0.67552    0.64783    1.000
    Si5764   Si       0.95648    0.56429    0.81055    1.000
    N5765    N        0.96407    0.56601    0.85327    1.000
    N5766    N        0.93867    0.60507    0.80255    1.000
    N5767    N        0.98551    0.55372    0.78244    1.000
    Si5768   Si       0.98134    0.52743    0.74697    1.000
    Si5769   Si       0.94290    0.64698    0.79432    1.000
    Si5770   Si       0.97597    0.71123    0.79595    1.000
    N5771    N        0.97735    0.67001    0.81067    1.000
    N5772    N        0.94342    0.72257    0.82481    1.000
    N5773    N        0.95946    0.71628    0.75756    1.000
    Si5774   Si       0.94153    0.75581    0.75253    1.000
    N5775    N        0.95189    0.66887    0.87156    1.000
    Si5776   Si       0.99215    0.67101    0.85248    1.000
    N5777    N        0.97667    0.59584    0.96460    1.000
    Si5778   Si       0.93855    0.59846    0.98637    1.000
    N5779    N        0.94273    0.55154    0.91081    1.000
    Si5780   Si       0.98112    0.54530    0.88782    1.000
    Si5781   Si       0.93630    0.58441    0.88149    1.000
    N5782    N        0.95790    0.73305    0.94396    1.000
    Si5783   Si       0.98563    0.70164    0.96227    1.000
    N5784    N        0.97876    0.66315    0.94124    1.000
    Si5785   Si       0.94658    0.65399    0.91175    1.000
    N5786    N        0.95223    0.79293    0.04264    1.000
    N5787    N        0.94688    0.85980    0.07137    1.000
    Si5788   Si       0.95339    0.76678    0.07830    1.000
    Si5789   Si       0.96097    0.86630    0.11163    1.000
    Si5790   Si       0.98226    0.79237    0.01135    1.000
    Si5791   Si       0.95476    0.96770    0.07981    1.000
    Si5792   Si       0.96709    0.94362    0.01070    1.000
    N5793    N        0.94226    0.90851    0.02061    1.000
    N5794    N        0.98174    0.97268    0.11339    1.000
    N5795    N        0.93690    0.92866    0.08937    1.000
    N5796    N        0.98427    0.95642    0.04744    1.000
    N5797    N        0.93337    0.99957    0.05874    1.000
    N5798    N        0.97351    0.82906    0.13469    1.000
    Si5799   Si       0.97199    0.83289    0.23436    1.000
    N5800    N        0.96756    0.77024    0.16716    1.000
    Si5801   Si       0.94254    0.79825    0.14348    1.000
    N5802    N        0.96672    0.86721    0.20659    1.000
    N5803    N        0.93114    0.81678    0.23958    1.000
    N5804    N        0.96590    0.92855    0.16644    1.000
    Si5805   Si       0.95440    0.90796    0.20528    1.000
    N5806    N        0.97654    0.93196    0.23333    1.000
    Si5807   Si       0.93376    0.92290    0.13555    1.000
    N5808    N        0.94409    0.99122    0.22389    1.000
    N5809    N        0.94973    0.78841    0.31083    1.000
    N5810    N        0.97619    0.83329    0.35526    1.000
    Si5811   Si       0.97544    0.87691    0.36046    1.000
    Si5812   Si       0.93506    0.78429    0.26984    1.000
    Si5813   Si       0.98249    0.81832    0.31488    1.000
    N5814    N        0.98585    0.83916    0.27615    1.000
    N5815    N        0.96969    0.88637    0.31827    1.000
    Si5816   Si       0.97623    0.96023    0.32726    1.000
    N5817    N        0.96602    0.98236    0.29087    1.000
    N5818    N        0.93917    0.94071    0.33709    1.000
    Si5819   Si       0.95389    0.96129    0.25413    1.000
    Si5820   Si       0.93309    0.90970    0.30874    1.000
    N5821    N        0.98652    0.99158    0.35668    1.000
    N5822    N        0.95121    0.76927    0.38268    1.000
    Si5823   Si       0.94810    0.81201    0.38203    1.000
    N5824    N        0.96484    0.83144    0.42017    1.000
    Si5825   Si       0.94676    0.87217    0.42600    1.000
    Si5826   Si       0.98975    0.87635    0.48704    1.000
    N5827    N        0.93839    0.88139    0.38392    1.000
    N5828    N        0.93435    0.93773    0.45890    1.000
    Si5829   Si       0.97745    0.93793    0.45355    1.000
    Si5830   Si       0.97103    0.98636    0.39889    1.000
    N5831    N        0.97795    0.89365    0.44717    1.000
    N5832    N        0.96976    0.78416    0.52004    1.000
    Si5833   Si       0.96073    0.87194    0.54770    1.000
    Si5834   Si       0.95360    0.76323    0.61941    1.000
    Si5835   Si       0.93531    0.79424    0.54377    1.000
    N5836    N        0.92722    0.78317    0.58818    1.000
    N5837    N        0.93476    0.83744    0.55489    1.000
    N5838    N        0.95038    0.84996    0.62207    1.000
    N5839    N        0.95181    0.88337    0.50618    1.000
    N5840    N        0.95825    0.91156    0.56556    1.000
    Si5841   Si       0.97672    0.98938    0.50989    1.000
    N5842    N        0.95124    0.97931    0.54293    1.000
    Si5843   Si       0.96979    0.99664    0.57996    1.000
    N5844    N        0.93723    0.97665    0.60507    1.000
    Si5845   Si       0.93548    0.94816    0.56659    1.000
    N5846    N        0.97288    0.79345    0.64148    1.000
    Si5847   Si       0.95076    0.86616    0.71557    1.000
    Si5848   Si       0.97482    0.83813    0.65856    1.000
    N5849    N        0.95721    0.82539    0.69942    1.000
    Si5850   Si       0.98015    0.78679    0.70703    1.000
    N5851    N        0.94021    0.76793    0.70780    1.000
    N5852    N        0.97082    0.87972    0.67858    1.000
    N5853    N        0.97944    0.89018    0.74058    1.000
    Si5854   Si       0.95548    0.96034    0.64073    1.000
    N5855    N        0.98162    0.99020    0.65879    1.000
    N5856    N        0.97276    0.92344    0.62790    1.000
    Si5857   Si       0.94819    0.88969    0.64147    1.000
    N5858    N        0.95767    0.97825    0.72930    1.000
    Si5859   Si       0.97164    0.80950    0.78023    1.000
    N5860    N        0.94508    0.84344    0.77096    1.000
    N5861    N        0.95114    0.78551    0.85676    1.000
    Si5862   Si       0.97832    0.84864    0.84047    1.000
    N5863    N        0.93857    0.85220    0.85945    1.000
    N5864    N        0.98745    0.78202    0.75035    1.000
    Si5865   Si       0.95918    0.88409    0.77804    1.000
    N5866    N        0.98318    0.88470    0.81523    1.000
    Si5867   Si       0.97062    0.98043    0.77332    1.000
    N5868    N        0.94020    0.98272    0.80410    1.000
    N5869    N        0.93365    0.93201    0.85434    1.000
    N5870    N        0.93533    0.79861    0.92018    1.000
    Si5871   Si       0.96755    0.77456    0.93668    1.000
    N5872    N        0.96866    0.80226    0.97059    1.000
    N5873    N        0.96058    0.87744    0.96052    1.000
    Si5874   Si       0.98716    0.84255    0.97420    1.000
    N5875    N        0.95468    0.95022    0.92417    1.000
    Si5876   Si       0.95940    0.90460    0.92476    1.000
    Si5877   Si       0.95089    0.96208    0.88207    1.000
    Si5878   Si       0.96767    0.97454    0.95747    1.000
    N5879    N        0.94255    0.97395    0.99262    1.000
