# CIF file generated by openbabel 3.1.1, see https://openbabel.org
data_I
_chemical_name_common '3.01-48.aims'
_cell_length_a 39.9138
_cell_length_b 39.9138
_cell_length_c 39.9138
_cell_angle_alpha 90
_cell_angle_beta 90
_cell_angle_gamma 90
loop_
    _atom_site_label
    _atom_site_type_symbol
    _atom_site_fract_x
    _atom_site_fract_y
    _atom_site_fract_z
    _atom_site_occupancy
    N0       N        0.06581    0.08669    0.04099    1.000
    N1       N        0.00377    0.11831    0.02080    1.000
    Si2      Si       0.06112    0.07468    0.00030    1.000
    N3       N        0.20724    0.07792    0.03837    1.000
    N4       N        0.13819    0.08789    0.03415    1.000
    N5       N        0.99562    0.23035    0.01587    1.000
    N6       N        0.04357    0.18244    0.03549    1.000
    Si7      Si       0.01304    0.15301    0.04644    1.000
    N8       N        0.06685    0.24446    0.05289    1.000
    Si9      Si       0.02862    0.20528    0.00162    1.000
    N10      N        0.12440    0.24123    0.00914    1.000
    N11      N        0.17973    0.20324    0.03586    1.000
    N12      N        0.23298    0.16178    0.02920    1.000
    Si13     Si       0.20322    0.21755    0.00154    1.000
    Si14     Si       0.13737    0.20294    0.02510    1.000
    N15      N        0.13529    0.16924    0.99771    1.000
    Si16     Si       0.03766    0.09001    0.07403    1.000
    N17      N        0.00223    0.06339    0.06799    1.000
    Si18     Si       0.99546    0.03674    0.10128    1.000
    N19      N        0.05814    0.06967    0.10616    1.000
    Si20     Si       0.10428    0.07864    0.06212    1.000
    N21      N        0.10797    0.11166    0.09122    1.000
    N22      N        0.02703    0.13135    0.08203    1.000
    N23      N        0.02788    0.01051    0.11121    1.000
    N24      N        0.10786    0.03696    0.07143    1.000
    N25      N        0.16821    0.07242    0.09455    1.000
    N26      N        0.21240    0.02313    0.09242    1.000
    Si27     Si       0.17505    0.03183    0.11014    1.000
    Si28     Si       0.23274    0.05148    0.06429    1.000
    Si29     Si       0.17278    0.09622    0.05735    1.000
    N30      N        0.02126    0.23867    0.10444    1.000
    N31      N        0.06113    0.18773    0.10233    1.000
    Si32     Si       0.07097    0.20186    0.06254    1.000
    Si33     Si       0.20674    0.22422    0.10553    1.000
    Si34     Si       0.14028    0.14051    0.10268    1.000
    N35      N        0.22019    0.18537    0.09040    1.000
    Si36     Si       0.19873    0.16880    0.05627    1.000
    N37      N        0.17107    0.13871    0.07068    1.000
    Si38     Si       0.12509    0.21477    0.09957    1.000
    N39      N        0.11463    0.19873    0.06162    1.000
    N40      N        0.16545    0.23280    0.10473    1.000
    N41      N        0.23931    0.25447    0.09792    1.000
    Si42     Si       0.08348    0.09863    0.12494    1.000
    Si43     Si       0.06313    0.03208    0.12834    1.000
    N44      N        0.10268    0.07169    0.15240    1.000
    N45      N        0.05424    0.12654    0.14434    1.000
    N46      N        0.18343    0.04887    0.15060    1.000
    Si47     Si       0.18403    0.08954    0.12892    1.000
    N48      N        0.15720    0.12206    0.14020    1.000
    N49      N        0.22436    0.10422    0.12947    1.000
    Si50     Si       0.23074    0.11641    0.17019    1.000
    N51      N        0.03865    0.25077    0.16307    1.000
    N52      N        0.00113    0.17814    0.12946    1.000
    Si53     Si       0.05835    0.22182    0.13514    1.000
    N54      N        0.09770    0.24200    0.12293    1.000
    N55      N        0.07359    0.19603    0.16816    1.000
    Si56     Si       0.03597    0.15592    0.11683    1.000
    N57      N        0.12830    0.17815    0.12271    1.000
    Si58     Si       0.16916    0.24852    0.14743    1.000
    Si59     Si       0.11613    0.19570    0.16117    1.000
    N60      N        0.20788    0.22600    0.14978    1.000
    N61      N        0.07196    0.10706    0.20654    1.000
    N62      N        0.00485    0.09058    0.19214    1.000
    Si63     Si       0.10231    0.08051    0.19412    1.000
    N64      N        0.09594    0.04686    0.22021    1.000
    Si65     Si       0.03667    0.11824    0.18257    1.000
    Si66     Si       0.06878    0.01799    0.20488    1.000
    Si67     Si       0.00734    0.04912    0.17679    1.000
    N68      N        0.04693    0.03334    0.17126    1.000
    N69      N        0.14328    0.09408    0.20528    1.000
    N70      N        0.17841    0.02767    0.21771    1.000
    Si71     Si       0.15541    0.12947    0.18326    1.000
    Si72     Si       0.19802    0.02228    0.18017    1.000
    Si73     Si       0.17156    0.06729    0.23058    1.000
    N74      N        0.01999    0.15835    0.19103    1.000
    N75      N        0.03607    0.22185    0.22433    1.000
    Si76     Si       0.05265    0.18587    0.20537    1.000
    N77      N        0.13524    0.16754    0.18987    1.000
    Si78     Si       0.14859    0.20508    0.21177    1.000
    N79      N        0.19605    0.12796    0.19376    1.000
    N80      N        0.14268    0.22853    0.17494    1.000
    Si81     Si       0.07008    0.12420    0.24628    1.000
    N82      N        0.10070    0.10347    0.27030    1.000
    N83      N        0.04015    0.11157    0.27660    1.000
    Si84     Si       0.10672    0.05972    0.26138    1.000
    N85      N        0.07763    0.04170    0.28847    1.000
    N86      N        0.99142    0.02686    0.27804    1.000
    N87      N        0.14977    0.05947    0.26702    1.000
    N88      N        0.20922    0.08433    0.24823    1.000
    Si89     Si       0.20267    0.12662    0.23561    1.000
    Si90     Si       0.13464    0.12699    0.28061    1.000
    N91      N        0.18531    0.00536    0.28492    1.000
    N92      N        0.00681    0.17321    0.26075    1.000
    Si93     Si       0.09407    0.19152    0.26435    1.000
    Si94     Si       0.02670    0.21091    0.26488    1.000
    N95      N        0.07166    0.16570    0.23923    1.000
    Si96     Si       0.01259    0.14098    0.28884    1.000
    N97      N        0.06300    0.20705    0.29044    1.000
    N98      N        0.11345    0.21760    0.23628    1.000
    N99      N        0.22927    0.21668    0.27463    1.000
    Si100    Si       0.22595    0.19156    0.23854    1.000
    Si101    Si       0.19018    0.24026    0.25894    1.000
    N102     N        0.18313    0.20106    0.23512    1.000
    N103     N        0.16254    0.22586    0.28954    1.000
    N104     N        0.16786    0.14093    0.25690    1.000
    Si105    Si       0.16571    0.18157    0.27584    1.000
    N106     N        0.02638    0.06648    0.32781    1.000
    Si107    Si       0.06007    0.07947    0.30233    1.000
    Si108    Si       0.00633    0.02479    0.31922    1.000
    N109     N        0.08658    0.08338    0.33891    1.000
    N110     N        0.15004    0.11363    0.31796    1.000
    N111     N        0.21769    0.05875    0.30711    1.000
    N112     N        0.15293    0.04982    0.33569    1.000
    Si113    Si       0.17641    0.04569    0.29798    1.000
    Si114    Si       0.23249    0.03579    0.34378    1.000
    Si115    Si       0.12830    0.08479    0.34363    1.000
    N116     N        0.02572    0.16006    0.32531    1.000
    Si117    Si       0.05330    0.19328    0.33145    1.000
    N118     N        0.99880    0.23198    0.29105    1.000
    Si119    Si       0.01424    0.25627    0.32432    1.000
    N120     N        0.13113    0.22286    0.34469    1.000
    Si121    Si       0.12151    0.18323    0.33638    1.000
    N122     N        0.19166    0.16971    0.31135    1.000
    Si123    Si       0.22182    0.20069    0.31528    1.000
    N124     N        0.21712    0.23728    0.34198    1.000
    N125     N        0.12328    0.17074    0.29143    1.000
    Si126    Si       0.17762    0.13863    0.34113    1.000
    Si127    Si       0.13345    0.25049    0.31220    1.000
    Si128    Si       0.05378    0.06860    0.36490    1.000
    N129     N        0.06511    0.02830    0.37627    1.000
    Si130    Si       0.10030    0.01560    0.40228    1.000
    N131     N        0.03869    0.08214    0.40248    1.000
    Si132    Si       0.99408    0.09256    0.40485    1.000
    N133     N        0.99557    0.01508    0.36002    1.000
    N134     N        0.99098    0.11764    0.36786    1.000
    Si135    Si       0.16468    0.02671    0.36991    1.000
    N136     N        0.20559    0.04108    0.37861    1.000
    N137     N        0.13365    0.10308    0.38300    1.000
    N138     N        0.13580    0.03815    0.39988    1.000
    N139     N        0.20765    0.12200    0.36618    1.000
    Si140    Si       0.23175    0.12967    0.40143    1.000
    Si141    Si       0.00071    0.15908    0.36154    1.000
    Si142    Si       0.03710    0.24372    0.38965    1.000
    N143     N        0.02603    0.17549    0.39227    1.000
    Si144    Si       0.07166    0.18169    0.40124    1.000
    N145     N        0.08423    0.17621    0.35718    1.000
    N146     N        0.03709    0.22885    0.34933    1.000
    Si147    Si       0.21813    0.24096    0.38708    1.000
    N148     N        0.13957    0.25259    0.40577    1.000
    N149     N        0.14788    0.16081    0.36244    1.000
    N150     N        0.19215    0.21133    0.40405    1.000
    Si151    Si       0.14939    0.21396    0.38709    1.000
    Si152    Si       0.12437    0.14370    0.39805    1.000
    Si153    Si       0.06492    0.10465    0.42848    1.000
    N154     N        0.10093    0.08229    0.44300    1.000
    N155     N        0.08192    0.01659    0.44145    1.000
    N156     N        0.17830    0.07946    0.43654    1.000
    N157     N        0.21914    0.03343    0.44916    1.000
    Si158    Si       0.18258    0.12210    0.45119    1.000
    Si159    Si       0.13789    0.07727    0.41773    1.000
    Si160    Si       0.21213    0.06031    0.41570    1.000
    N161     N        0.14221    0.13442    0.43780    1.000
    Si162    Si       0.10322    0.24844    0.42928    1.000
    N163     N        0.00349    0.23528    0.41664    1.000
    Si164    Si       0.00735    0.19363    0.42711    1.000
    N165     N        0.03828    0.18760    0.45781    1.000
    N166     N        0.07136    0.22648    0.40870    1.000
    N167     N        0.08136    0.14038    0.41069    1.000
    N168     N        0.20887    0.14990    0.43179    1.000
    N169     N        0.12206    0.18786    0.41105    1.000
    Si170    Si       0.12840    0.17926    0.45289    1.000
    N171     N        0.22902    0.21678    0.46335    1.000
    Si172    Si       0.20260    0.19216    0.44081    1.000
    N173     N        0.11705    0.22650    0.46576    1.000
    N174     N        0.08099    0.03634    0.50498    1.000
    N175     N        0.00633    0.07126    0.50710    1.000
    Si176    Si       0.00389    0.10560    0.48174    1.000
    Si177    Si       0.10265    0.04365    0.46781    1.000
    N178     N        0.04503    0.11903    0.46600    1.000
    Si179    Si       0.11529    0.11619    0.46975    1.000
    N180     N        0.12248    0.09220    0.50586    1.000
    N181     N        0.18951    0.06571    0.50957    1.000
    N182     N        0.17951    0.12642    0.49332    1.000
    N183     N        0.14212    0.02998    0.47660    1.000
    Si184    Si       0.17912    0.04905    0.46991    1.000
    Si185    Si       0.16423    0.09848    0.52158    1.000
    Si186    Si       0.10182    0.23267    0.50584    1.000
    N187     N        0.10060    0.15698    0.47933    1.000
    Si188    Si       0.05685    0.15745    0.48280    1.000
    N189     N        0.02453    0.25166    0.52097    1.000
    Si190    Si       0.18329    0.16655    0.50613    1.000
    Si191    Si       0.15881    0.22893    0.48447    1.000
    N192     N        0.16908    0.18886    0.47113    1.000
    N193     N        0.22552    0.17223    0.51287    1.000
    N194     N        0.14087    0.23144    0.52538    1.000
    N195     N        0.06650    0.08499    0.55269    1.000
    Si196    Si       0.02860    0.06274    0.54649    1.000
    N197     N        0.04209    0.02304    0.55811    1.000
    Si198    Si       0.09912    0.06336    0.53116    1.000
    N199     N        0.99699    0.07483    0.57514    1.000
    N200     N        0.12550    0.04601    0.56183    1.000
    N201     N        0.15945    0.10474    0.56408    1.000
    N202     N        0.21789    0.05281    0.56844    1.000
    N203     N        0.22537    0.11135    0.55117    1.000
    Si204    Si       0.23001    0.07169    0.52964    1.000
    Si205    Si       0.20145    0.09135    0.58315    1.000
    N206     N        0.07878    0.20815    0.53252    1.000
    Si207    Si       0.05142    0.23885    0.55354    1.000
    N208     N        0.09535    0.14596    0.56993    1.000
    Si209    Si       0.06295    0.17166    0.55396    1.000
    N210     N        0.03607    0.20303    0.57483    1.000
    Si211    Si       0.99448    0.16215    0.53441    1.000
    N212     N        0.03701    0.15413    0.52405    1.000
    N213     N        0.18814    0.23326    0.56625    1.000
    Si214    Si       0.15343    0.20826    0.56154    1.000
    N215     N        0.15801    0.17026    0.54314    1.000
    Si216    Si       0.14027    0.14371    0.57126    1.000
    N217     N        0.05208    0.03068    0.63086    1.000
    N218     N        0.10300    0.08552    0.61162    1.000
    Si219    Si       0.09262    0.05135    0.63886    1.000
    N220     N        0.03830    0.12657    0.60100    1.000
    Si221    Si       0.99762    0.11511    0.59143    1.000
    Si222    Si       0.07635    0.11032    0.58701    1.000
    N223     N        0.17356    0.06880    0.61640    1.000
    N224     N        0.20863    0.12138    0.61492    1.000
    Si225    Si       0.16792    0.02750    0.63330    1.000
    Si226    Si       0.13899    0.07613    0.58972    1.000
    N227     N        0.12564    0.02276    0.63674    1.000
    Si228    Si       0.21926    0.01439    0.58451    1.000
    Si229    Si       0.20102    0.09059    0.64464    1.000
    Si230    Si       0.01620    0.21764    0.61070    1.000
    Si231    Si       0.03481    0.14649    0.63967    1.000
    N232     N        0.03177    0.18894    0.64044    1.000
    Si233    Si       0.12869    0.19600    0.62556    1.000
    Si234    Si       0.18358    0.16494    0.63813    1.000
    N235     N        0.12302    0.21970    0.59060    1.000
    N236     N        0.15114    0.16127    0.60928    1.000
    N237     N        0.22645    0.18022    0.63679    1.000
    N238     N        0.16455    0.20773    0.64690    1.000
    N239     N        0.08789    0.05769    0.68154    1.000
    Si240    Si       0.03087    0.03028    0.67083    1.000
    N241     N        0.02365    0.07228    0.67800    1.000
    Si242    Si       0.06092    0.09094    0.69002    1.000
    N243     N        0.06331    0.13017    0.66807    1.000
    N244     N        0.99438    0.13207    0.64871    1.000
    N245     N        0.23824    0.06772    0.64363    1.000
    N246     N        0.19406    0.02488    0.66613    1.000
    N247     N        0.19577    0.08916    0.68863    1.000
    Si248    Si       0.23668    0.02485    0.65395    1.000
    Si249    Si       0.18763    0.04835    0.70253    1.000
    N250     N        0.06677    0.25458    0.67001    1.000
    N251     N        0.09639    0.19044    0.65156    1.000
    Si252    Si       0.09111    0.16183    0.68422    1.000
    Si253    Si       0.05423    0.21090    0.67066    1.000
    N254     N        0.01557    0.22583    0.69381    1.000
    N255     N        0.21365    0.22538    0.68925    1.000
    N256     N        0.17760    0.15266    0.67966    1.000
    Si257    Si       0.17037    0.22524    0.68502    1.000
    N258     N        0.06367    0.09854    0.73264    1.000
    N259     N        0.00439    0.05016    0.74640    1.000
    Si260    Si       0.09317    0.12703    0.74805    1.000
    N261     N        0.10073    0.04057    0.75185    1.000
    Si262    Si       0.10725    0.03034    0.71040    1.000
    Si263    Si       0.03346    0.08383    0.76020    1.000
    Si264    Si       0.02136    0.01080    0.73976    1.000
    N265     N        0.14660    0.05116    0.71667    1.000
    N266     N        0.21579    0.03446    0.73349    1.000
    Si267    Si       0.19937    0.12618    0.70790    1.000
    Si268    Si       0.13782    0.06229    0.75731    1.000
    Si269    Si       0.06345    0.19689    0.74993    1.000
    Si270    Si       0.99364    0.20319    0.72375    1.000
    N271     N        0.06660    0.18963    0.70676    1.000
    N272     N        0.08931    0.23371    0.76026    1.000
    N273     N        0.02086    0.19673    0.75882    1.000
    Si274    Si       0.13102    0.23191    0.74852    1.000
    N275     N        0.23711    0.13517    0.72823    1.000
    N276     N        0.14523    0.20803    0.71647    1.000
    N277     N        0.11568    0.14425    0.71449    1.000
    N278     N        0.17831    0.14056    0.74270    1.000
    Si279    Si       0.15328    0.16490    0.71448    1.000
    N280     N        0.04974    0.06736    0.79534    1.000
    Si281    Si       0.07659    0.03331    0.78567    1.000
    N282     N        0.00741    0.11651    0.76746    1.000
    N283     N        0.10229    0.02146    0.81658    1.000
    N284     N        0.12213    0.09959    0.77221    1.000
    N285     N        0.16913    0.04692    0.78208    1.000
    N286     N        0.22127    0.10042    0.78880    1.000
    Si287    Si       0.19572    0.07009    0.80816    1.000
    Si288    Si       0.12889    0.10824    0.81374    1.000
    Si289    Si       0.19181    0.01339    0.76323    1.000
    Si290    Si       0.00511    0.19922    0.80004    1.000
    N291     N        0.08651    0.16461    0.76814    1.000
    N292     N        0.03092    0.22952    0.81437    1.000
    Si293    Si       0.11831    0.18304    0.79335    1.000
    N294     N        0.99979    0.16248    0.82377    1.000
    Si295    Si       0.19371    0.20509    0.79692    1.000
    N296     N        0.13838    0.15064    0.81560    1.000
    N297     N        0.20855    0.16424    0.79886    1.000
    N298     N        0.23460    0.22039    0.79778    1.000
    N299     N        0.15053    0.21202    0.78342    1.000
    Si300    Si       0.21383    0.13720    0.76608    1.000
    N301     N        0.02205    0.10651    0.84668    1.000
    Si302    Si       0.05761    0.08029    0.83781    1.000
    N303     N        0.09653    0.09614    0.84035    1.000
    N304     N        0.05002    0.05014    0.86920    1.000
    Si305    Si       0.02141    0.01573    0.87058    1.000
    N306     N        0.22424    0.04999    0.83617    1.000
    N307     N        0.16705    0.09219    0.82993    1.000
    Si308    Si       0.17035    0.10058    0.87384    1.000
    N309     N        0.07012    0.25033    0.86838    1.000
    N310     N        0.05235    0.18098    0.86087    1.000
    Si311    Si       0.02229    0.14918    0.86154    1.000
    Si312    Si       0.06372    0.21599    0.84034    1.000
    N313     N        0.10024    0.20945    0.82249    1.000
    N314     N        0.20985    0.26029    0.85615    1.000
    Si315    Si       0.23779    0.25395    0.82273    1.000
    Si316    Si       0.18057    0.23133    0.87407    1.000
    Si317    Si       0.13969    0.23404    0.82474    1.000
    Si318    Si       0.17741    0.15993    0.83033    1.000
    N319     N        0.18889    0.14125    0.86407    1.000
    N320     N        0.17449    0.20497    0.83743    1.000
    N321     N        0.14212    0.25122    0.87199    1.000
    N322     N        0.08827    0.07041    0.91738    1.000
    Si323    Si       0.06758    0.03332    0.90610    1.000
    N324     N        0.03100    0.00926    0.91128    1.000
    Si325    Si       0.11056    0.07979    0.88095    1.000
    N326     N        0.21062    0.09085    0.89111    1.000
    N327     N        0.21047    0.02003    0.89836    1.000
    Si328    Si       0.16796    0.02404    0.89075    1.000
    N329     N        0.13449    0.11852    0.88759    1.000
    Si330    Si       0.22669    0.13048    0.88235    1.000
    Si331    Si       0.22951    0.05354    0.87887    1.000
    N332     N        0.15511    0.01047    0.92900    1.000
    N333     N        0.15007    0.06072    0.88288    1.000
    N334     N        0.09372    0.25709    0.93130    1.000
    Si335    Si       0.10443    0.23915    0.89282    1.000
    N336     N        0.00992    0.15227    0.90233    1.000
    N337     N        0.04459    0.20577    0.92866    1.000
    N338     N        0.08465    0.14529    0.92468    1.000
    Si339    Si       0.06737    0.17956    0.90260    1.000
    Si340    Si       0.00649    0.18608    0.93217    1.000
    N341     N        0.10755    0.19552    0.89505    1.000
    Si342    Si       0.12442    0.15502    0.90713    1.000
    Si343    Si       0.19878    0.18153    0.92982    1.000
    N344     N        0.23260    0.16036    0.91306    1.000
    N345     N        0.19420    0.22167    0.91381    1.000
    N346     N        0.15935    0.16105    0.93221    1.000
    Si347    Si       0.20802    0.25437    0.93920    1.000
    N348     N        0.05547    0.10898    0.97411    1.000
    Si349    Si       0.08833    0.10548    0.94429    1.000
    Si350    Si       0.01650    0.12850    0.97990    1.000
    N351     N        0.09850    0.05661    0.99142    1.000
    Si352    Si       0.10010    0.01311    0.99189    1.000
    N353     N        0.02756    0.04823    0.99154    1.000
    Si354    Si       0.17219    0.01791    0.96794    1.000
    N355     N        0.12732    0.11061    0.96575    1.000
    N356     N        0.17236    0.05776    0.98200    1.000
    N357     N        0.19369    0.12171    0.98235    1.000
    Si358    Si       0.13631    0.07748    0.99167    1.000
    Si359    Si       0.20726    0.08386    0.99430    1.000
    Si360    Si       0.05353    0.24497    0.94529    1.000
    N361     N        0.01029    0.17171    0.97520    1.000
    N362     N        0.05465    0.23825    0.98654    1.000
    N363     N        0.18572    0.24932    0.97770    1.000
    Si364    Si       0.22806    0.15063    0.98649    1.000
    N365     N        0.20497    0.18466    0.97283    1.000
    Si366    Si       0.15626    0.14316    0.96980    1.000
    Si367    Si       0.01346    0.33180    0.04117    1.000
    N368     N        0.09154    0.30252    0.02020    1.000
    N369     N        0.03798    0.34706    0.00866    1.000
    N370     N        0.01245    0.28793    0.04506    1.000
    Si371    Si       0.08398    0.25632    0.01301    1.000
    N372     N        0.21977    0.34190    0.04355    1.000
    N373     N        0.15924    0.29924    0.02365    1.000
    Si374    Si       0.19684    0.31945    0.01583    1.000
    Si375    Si       0.12567    0.31424    0.04599    1.000
    N376     N        0.23192    0.29496    0.00517    1.000
    N377     N        0.12886    0.35832    0.04726    1.000
    Si378    Si       0.04269    0.39199    0.01408    1.000
    N379     N        0.07280    0.39407    0.04669    1.000
    Si380    Si       0.10444    0.47229    0.04038    1.000
    N381     N        0.00526    0.40012    0.03442    1.000
    N382     N        0.06149    0.47883    0.03043    1.000
    Si383    Si       0.03737    0.50673    0.04964    1.000
    N384     N        0.24120    0.41747    0.00630    1.000
    Si385    Si       0.11715    0.39053    0.01978    1.000
    N386     N        0.18750    0.45814    0.01305    1.000
    Si387    Si       0.21776    0.43977    0.03302    1.000
    N388     N        0.11779    0.43754    0.01984    1.000
    Si389    Si       0.15352    0.44165    0.99538    1.000
    N390     N        0.02578    0.34764    0.07781    1.000
    N391     N        0.05906    0.29520    0.10080    1.000
    Si392    Si       0.03734    0.26818    0.07448    1.000
    N393     N        0.08828    0.36623    0.10686    1.000
    Si394    Si       0.05527    0.38007    0.08178    1.000
    Si395    Si       0.03094    0.32304    0.11519    1.000
    N396     N        0.13039    0.29789    0.08734    1.000
    Si397    Si       0.12890    0.37164    0.08904    1.000
    N398     N        0.22993    0.37025    0.10632    1.000
    Si399    Si       0.23325    0.37980    0.06445    1.000
    N400     N        0.16223    0.35530    0.11333    1.000
    N401     N        0.03209    0.49222    0.09064    1.000
    N402     N        0.10578    0.48179    0.08208    1.000
    N403     N        0.02720    0.41050    0.09979    1.000
    Si404    Si       0.99514    0.47756    0.10542    1.000
    Si405    Si       0.07259    0.48779    0.10887    1.000
    Si406    Si       0.99009    0.41149    0.07459    1.000
    N407     N        0.18177    0.47133    0.08903    1.000
    N408     N        0.20468    0.41288    0.06374    1.000
    Si409    Si       0.17704    0.42732    0.09406    1.000
    Si410    Si       0.22351    0.48468    0.09269    1.000
    N411     N        0.13556    0.41595    0.09719    1.000
    Si412    Si       0.14468    0.48683    0.10208    1.000
    N413     N        0.04460    0.34234    0.15044    1.000
    Si414    Si       0.08839    0.35437    0.14926    1.000
    N415     N        0.99555    0.29884    0.12360    1.000
    Si416    Si       0.00178    0.26110    0.14021    1.000
    N417     N        0.11361    0.31411    0.14619    1.000
    Si418    Si       0.09687    0.28470    0.11567    1.000
    Si419    Si       0.14990    0.31511    0.12322    1.000
    Si420    Si       0.19711    0.37567    0.13191    1.000
    N421     N        0.17615    0.29168    0.14525    1.000
    Si422    Si       0.21015    0.31479    0.16418    1.000
    N423     N        0.20700    0.35946    0.16895    1.000
    N424     N        0.07432    0.45105    0.13064    1.000
    N425     N        0.00960    0.46169    0.14416    1.000
    Si426    Si       0.03712    0.42934    0.13653    1.000
    N427     N        0.11059    0.39507    0.16089    1.000
    N428     N        0.03207    0.40262    0.16998    1.000
    Si429    Si       0.11382    0.42917    0.13308    1.000
    N430     N        0.19134    0.41944    0.13577    1.000
    Si431    Si       0.21475    0.45024    0.15638    1.000
    N432     N        0.13683    0.46425    0.13981    1.000
    N433     N        0.09173    0.34944    0.19521    1.000
    N434     N        0.02878    0.29999    0.21829    1.000
    N435     N        0.09819    0.29018    0.21603    1.000
    Si436    Si       0.06756    0.32150    0.22406    1.000
    N437     N        0.03170    0.37187    0.22576    1.000
    Si438    Si       0.02266    0.36146    0.18153    1.000
    Si439    Si       0.02894    0.25870    0.20312    1.000
    Si440    Si       0.12189    0.31599    0.18853    1.000
    N441     N        0.21870    0.29703    0.20321    1.000
    N442     N        0.15896    0.32878    0.20511    1.000
    Si443    Si       0.16813    0.36209    0.23151    1.000
    Si444    Si       0.00422    0.47636    0.18389    1.000
    N445     N        0.07788    0.42681    0.21638    1.000
    N446     N        0.00655    0.44637    0.21748    1.000
    Si447    Si       0.03705    0.41408    0.21303    1.000
    Si448    Si       0.10261    0.39253    0.20411    1.000
    N449     N        0.13747    0.45539    0.20959    1.000
    N450     N        0.20233    0.38756    0.22968    1.000
    Si451    Si       0.20959    0.50867    0.21049    1.000
    N452     N        0.23314    0.43535    0.19392    1.000
    Si453    Si       0.14910    0.48091    0.17788    1.000
    Si454    Si       0.22671    0.38957    0.19484    1.000
    N455     N        0.13613    0.39152    0.23091    1.000
    N456     N        0.19429    0.48414    0.17674    1.000
    N457     N        0.06417    0.33118    0.26548    1.000
    Si458    Si       0.03512    0.36536    0.27250    1.000
    N459     N        0.99739    0.34352    0.28537    1.000
    N460     N        0.10381    0.26790    0.28305    1.000
    N461     N        0.18232    0.33367    0.26362    1.000
    N462     N        0.21540    0.27664    0.26617    1.000
    N463     N        0.16002    0.26658    0.23813    1.000
    Si464    Si       0.18992    0.29999    0.23656    1.000
    Si465    Si       0.11726    0.25994    0.24225    1.000
    N466     N        0.02419    0.41022    0.27763    1.000
    N467     N        0.05136    0.47626    0.26079    1.000
    Si468    Si       0.01460    0.45121    0.26180    1.000
    Si469    Si       0.08877    0.46278    0.23747    1.000
    N470     N        0.11286    0.44543    0.26891    1.000
    N471     N        0.98946    0.47421    0.28932    1.000
    N472     N        0.09565    0.50491    0.23119    1.000
    N473     N        0.23831    0.49286    0.23935    1.000
    Si474    Si       0.21388    0.40950    0.26398    1.000
    N475     N        0.18245    0.43777    0.26993    1.000
    Si476    Si       0.14702    0.43251    0.24524    1.000
    N477     N        0.09557    0.31925    0.32722    1.000
    N478     N        0.03741    0.29331    0.31532    1.000
    N479     N        0.04144    0.36797    0.32044    1.000
    Si480    Si       0.01578    0.33072    0.32230    1.000
    Si481    Si       0.07857    0.35895    0.33969    1.000
    Si482    Si       0.07586    0.30019    0.29341    1.000
    N483     N        0.15982    0.35139    0.32778    1.000
    N484     N        0.15894    0.28170    0.32878    1.000
    N485     N        0.21771    0.32049    0.33378    1.000
    Si486    Si       0.13703    0.31766    0.34030    1.000
    Si487    Si       0.20074    0.27863    0.33941    1.000
    Si488    Si       0.19815    0.34530    0.30368    1.000
    N489     N        0.03650    0.43935    0.34580    1.000
    N490     N        0.09480    0.46553    0.32945    1.000
    Si491    Si       0.02033    0.40716    0.32162    1.000
    N492     N        0.10348    0.38869    0.32109    1.000
    Si493    Si       0.05631    0.47780    0.34572    1.000
    Si494    Si       0.10634    0.43048    0.30760    1.000
    N495     N        0.14841    0.43208    0.32730    1.000
    N496     N        0.21424    0.38445    0.29971    1.000
    Si497    Si       0.23467    0.40562    0.33158    1.000
    Si498    Si       0.14413    0.38989    0.33831    1.000
    N499     N        0.16330    0.49047    0.31828    1.000
    Si500    Si       0.13499    0.46951    0.34706    1.000
    Si501    Si       0.18190    0.45371    0.30878    1.000
    N502     N        0.21636    0.44512    0.33364    1.000
    N503     N        0.08076    0.35870    0.38259    1.000
    N504     N        0.03508    0.28606    0.39492    1.000
    N505     N        0.99473    0.33609    0.36132    1.000
    Si506    Si       0.99395    0.29888    0.38262    1.000
    Si507    Si       0.98396    0.37511    0.37402    1.000
    Si508    Si       0.12110    0.35476    0.39557    1.000
    N509     N        0.19937    0.28113    0.38471    1.000
    N510     N        0.13746    0.31869    0.38365    1.000
    Si511    Si       0.16240    0.28855    0.40355    1.000
    Si512    Si       0.23091    0.33529    0.37122    1.000
    N513     N        0.23134    0.37886    0.36410    1.000
    N514     N        0.01928    0.39370    0.39528    1.000
    N515     N        0.06659    0.48730    0.38672    1.000
    Si516    Si       0.03094    0.43629    0.38934    1.000
    N517     N        0.19923    0.42637    0.40711    1.000
    N518     N        0.22319    0.50546    0.38513    1.000
    Si519    Si       0.23848    0.47895    0.35357    1.000
    Si520    Si       0.15573    0.42600    0.40268    1.000
    N521     N        0.14160    0.38917    0.38003    1.000
    Si522    Si       0.22467    0.39115    0.40387    1.000
    N523     N        0.13154    0.45856    0.38804    1.000
    N524     N        0.03883    0.34675    0.43845    1.000
    N525     N        0.09184    0.29069    0.44036    1.000
    Si526    Si       0.05161    0.30469    0.42939    1.000
    N527     N        0.02365    0.28928    0.46038    1.000
    Si528    Si       0.05829    0.37931    0.41246    1.000
    N529     N        0.11800    0.35567    0.43821    1.000
    Si530    Si       0.12302    0.31570    0.45696    1.000
    N531     N        0.16213    0.30116    0.44422    1.000
    N532     N        0.23185    0.28951    0.44948    1.000
    N533     N        0.21463    0.34807    0.41326    1.000
    Si534    Si       0.99807    0.38473    0.43661    1.000
    N535     N        0.01800    0.42045    0.45818    1.000
    N536     N        0.09358    0.46793    0.45452    1.000
    N537     N        0.06913    0.42511    0.41516    1.000
    Si538    Si       0.06426    0.43494    0.46027    1.000
    Si539    Si       0.09333    0.46113    0.41001    1.000
    Si540    Si       0.99070    0.45520    0.45346    1.000
    N541     N        0.99752    0.45783    0.40869    1.000
    N542     N        0.17586    0.48208    0.45357    1.000
    Si543    Si       0.12643    0.39019    0.46286    1.000
    Si544    Si       0.20335    0.45239    0.44109    1.000
    N545     N        0.14058    0.42519    0.44368    1.000
    Si546    Si       0.13659    0.46210    0.46607    1.000
    Si547    Si       0.04684    0.27805    0.49674    1.000
    N548     N        0.04145    0.32196    0.51019    1.000
    N549     N        0.08551    0.27153    0.51153    1.000
    N550     N        0.99223    0.36675    0.47790    1.000
    Si551    Si       0.01721    0.33191    0.47559    1.000
    N552     N        0.13071    0.32040    0.49975    1.000
    N553     N        0.20217    0.32812    0.50197    1.000
    Si554    Si       0.16195    0.34654    0.51173    1.000
    Si555    Si       0.19674    0.29654    0.47115    1.000
    N556     N        0.18314    0.26261    0.49527    1.000
    Si557    Si       0.01455    0.40159    0.49889    1.000
    N558     N        0.05502    0.44296    0.50639    1.000
    Si559    Si       0.07779    0.40650    0.51859    1.000
    N560     N        0.08678    0.39986    0.47700    1.000
    N561     N        0.99336    0.48807    0.48129    1.000
    N562     N        0.04384    0.38297    0.52633    1.000
    N563     N        0.14471    0.44865    0.50935    1.000
    N564     N        0.20780    0.42611    0.47516    1.000
    N565     N        0.15916    0.38249    0.49004    1.000
    Si566    Si       0.17772    0.41929    0.50403    1.000
    N567     N        0.09238    0.33980    0.55496    1.000
    Si568    Si       0.04865    0.34507    0.54545    1.000
    N569     N        0.02410    0.33005    0.57727    1.000
    N570     N        0.07368    0.27037    0.57777    1.000
    Si571    Si       0.10663    0.30236    0.53316    1.000
    Si572    Si       0.12109    0.36800    0.56813    1.000
    N573     N        0.16131    0.35353    0.55651    1.000
    N574     N        0.20044    0.29625    0.56003    1.000
    N575     N        0.13857    0.28566    0.56209    1.000
    Si576    Si       0.16474    0.31611    0.57905    1.000
    Si577    Si       0.19790    0.37607    0.56625    1.000
    Si578    Si       0.17198    0.26475    0.53747    1.000
    N579     N        0.23397    0.35419    0.56310    1.000
    Si580    Si       0.22931    0.32130    0.53650    1.000
    N581     N        0.02907    0.45423    0.56875    1.000
    N582     N        0.09017    0.46628    0.56074    1.000
    Si583    Si       0.05588    0.47303    0.53737    1.000
    Si584    Si       0.99438    0.42991    0.56167    1.000
    N585     N        0.11066    0.40471    0.54688    1.000
    N586     N        0.00150    0.39208    0.58425    1.000
    Si587    Si       0.12694    0.44602    0.54844    1.000
    N588     N        0.22608    0.46382    0.57678    1.000
    N589     N        0.19709    0.41235    0.54193    1.000
    N590     N        0.15524    0.45648    0.57753    1.000
    Si591    Si       0.19376    0.43614    0.57649    1.000
    Si592    Si       0.04346    0.29601    0.60011    1.000
    N593     N        0.06284    0.31519    0.63621    1.000
    N594     N        0.01749    0.26346    0.60474    1.000
    Si595    Si       0.11445    0.26201    0.59117    1.000
    N596     N        0.12195    0.27742    0.63096    1.000
    N597     N        0.16766    0.32736    0.61987    1.000
    Si598    Si       0.16224    0.37230    0.62492    1.000
    N599     N        0.19968    0.27069    0.62493    1.000
    Si600    Si       0.16244    0.28822    0.64083    1.000
    N601     N        0.12241    0.37968    0.60923    1.000
    Si602    Si       0.21440    0.26180    0.58534    1.000
    N603     N        0.99659    0.49833    0.62528    1.000
    Si604    Si       0.09843    0.40606    0.63379    1.000
    Si605    Si       0.06400    0.45472    0.59646    1.000
    N606     N        0.06440    0.49245    0.61804    1.000
    Si607    Si       0.01904    0.40369    0.62166    1.000
    N608     N        0.06034    0.41623    0.61416    1.000
    N609     N        0.99488    0.43564    0.64085    1.000
    N610     N        0.11481    0.44545    0.63848    1.000
    Si611    Si       0.14535    0.47156    0.61818    1.000
    Si612    Si       0.21364    0.49014    0.61083    1.000
    N613     N        0.19039    0.40074    0.60322    1.000
    N614     N        0.18570    0.46649    0.63616    1.000
    Si615    Si       0.05281    0.35175    0.65939    1.000
    Si616    Si       0.08957    0.28735    0.65636    1.000
    N617     N        0.00026    0.29394    0.69228    1.000
    Si618    Si       0.03146    0.26402    0.69350    1.000
    N619     N        0.01398    0.36995    0.65024    1.000
    N620     N        0.11006    0.30305    0.69179    1.000
    N621     N        0.17144    0.26892    0.68027    1.000
    N622     N        0.22485    0.37434    0.69248    1.000
    N623     N        0.23289    0.30347    0.67598    1.000
    Si624    Si       0.21878    0.26286    0.66478    1.000
    Si625    Si       0.21458    0.33099    0.70177    1.000
    N626     N        0.08261    0.38223    0.66677    1.000
    N627     N        0.04895    0.46005    0.67336    1.000
    Si628    Si       0.09422    0.46244    0.67385    1.000
    Si629    Si       0.03156    0.49086    0.65028    1.000
    N630     N        0.10517    0.50228    0.68048    1.000
    N631     N        0.11291    0.43612    0.70325    1.000
    N632     N        0.15998    0.38446    0.66485    1.000
    N633     N        0.22654    0.48921    0.69564    1.000
    Si634    Si       0.21191    0.45514    0.67175    1.000
    Si635    Si       0.18337    0.39564    0.69649    1.000
    N636     N        0.18412    0.43798    0.70394    1.000
    Si637    Si       0.02155    0.31729    0.72218    1.000
    N638     N        0.04955    0.28265    0.72997    1.000
    Si639    Si       0.09036    0.32721    0.72264    1.000
    N640     N        0.00188    0.33354    0.75717    1.000
    N641     N        0.05244    0.33947    0.70190    1.000
    N642     N        0.11454    0.36264    0.72783    1.000
    Si643    Si       0.15726    0.35432    0.74350    1.000
    N644     N        0.14584    0.27178    0.74627    1.000
    N645     N        0.17246    0.32741    0.71205    1.000
    Si646    Si       0.14839    0.29175    0.70868    1.000
    N647     N        0.24002    0.33590    0.74016    1.000
    N648     N        0.02297    0.48099    0.73520    1.000
    N649     N        0.05519    0.41481    0.72698    1.000
    Si650    Si       0.02968    0.44592    0.70965    1.000
    Si651    Si       0.09135    0.39540    0.70873    1.000
    N652     N        0.98824    0.43193    0.71004    1.000
    N653     N        0.18875    0.38353    0.73898    1.000
    N654     N        0.23927    0.41685    0.75669    1.000
    N655     N        0.21210    0.47142    0.75875    1.000
    N656     N        0.15500    0.49437    0.72311    1.000
    Si657    Si       0.19947    0.49906    0.72844    1.000
    Si658    Si       0.14695    0.45311    0.72097    1.000
    Si659    Si       0.19684    0.42940    0.75145    1.000
    N660     N        0.15463    0.43415    0.76136    1.000
    Si661    Si       0.07275    0.32944    0.79584    1.000
    N662     N        0.04796    0.29171    0.79820    1.000
    N663     N        0.05321    0.36817    0.78307    1.000
    Si664    Si       0.00928    0.36340    0.78769    1.000
    Si665    Si       0.01489    0.27168    0.81404    1.000
    Si666    Si       0.07010    0.27137    0.76572    1.000
    N667     N        0.09608    0.30794    0.76574    1.000
    Si668    Si       0.13738    0.29631    0.78013    1.000
    N669     N        0.16039    0.33403    0.78094    1.000
    N670     N        0.22221    0.35211    0.80975    1.000
    N671     N        0.22889    0.28632    0.79583    1.000
    N672     N        0.13626    0.27678    0.81755    1.000
    Si673    Si       0.17930    0.34741    0.81766    1.000
    Si674    Si       0.02365    0.48616    0.77871    1.000
    N675     N        0.04075    0.44686    0.79243    1.000
    Si676    Si       0.04382    0.40933    0.76829    1.000
    N677     N        0.00146    0.39897    0.76519    1.000
    N678     N        0.10296    0.42059    0.81498    1.000
    Si679    Si       0.08922    0.50826    0.80566    1.000
    N680     N        0.11468    0.48260    0.78126    1.000
    Si681    Si       0.13181    0.44694    0.79645    1.000
    N682     N        0.00336    0.27984    0.85499    1.000
    N683     N        0.09771    0.34503    0.82804    1.000
    Si684    Si       0.09077    0.34180    0.87086    1.000
    N685     N        0.99401    0.37640    0.82479    1.000
    N686     N        0.10859    0.37963    0.87624    1.000
    Si687    Si       0.14180    0.29313    0.85887    1.000
    N688     N        0.17581    0.32054    0.85174    1.000
    Si689    Si       0.20771    0.29971    0.87535    1.000
    Si690    Si       0.11651    0.38378    0.83159    1.000
    N691     N        0.15844    0.38410    0.82788    1.000
    Si692    Si       0.99989    0.41308    0.84892    1.000
    N693     N        0.08283    0.48434    0.84091    1.000
    Si694    Si       0.06741    0.44293    0.82913    1.000
    N695     N        0.04485    0.41969    0.85543    1.000
    N696     N        0.21861    0.41975    0.83231    1.000
    Si697    Si       0.18274    0.49806    0.82310    1.000
    Si698    Si       0.17592    0.42074    0.84382    1.000
    N699     N        0.22582    0.49551    0.83322    1.000
    N700     N        0.16286    0.45747    0.82230    1.000
    Si701    Si       0.04312    0.33740    0.92422    1.000
    N702     N        0.02885    0.27082    0.91930    1.000
    N703     N        0.00044    0.33432    0.92708    1.000
    Si704    Si       0.10669    0.29855    0.93093    1.000
    N705     N        0.05223    0.37877    0.92659    1.000
    N706     N        0.05069    0.32308    0.88294    1.000
    Si707    Si       0.99355    0.29141    0.93215    1.000
    Si708    Si       0.03998    0.28138    0.87864    1.000
    N709     N        0.11568    0.31061    0.88915    1.000
    N710     N        0.19468    0.28899    0.91747    1.000
    N711     N        0.16342    0.36068    0.92655    1.000
    N712     N        0.22993    0.37897    0.88081    1.000
    N713     N        0.99728    0.39856    0.89091    1.000
    N714     N        0.06000    0.44680    0.91828    1.000
    Si715    Si       0.04190    0.41057    0.89882    1.000
    Si716    Si       0.08650    0.50292    0.88032    1.000
    Si717    Si       0.10237    0.45422    0.93560    1.000
    Si718    Si       0.04702    0.48368    0.93662    1.000
    N719     N        0.22697    0.44977    0.88778    1.000
    N720     N        0.17074    0.41387    0.88603    1.000
    N721     N        0.18894    0.50348    0.91058    1.000
    Si722    Si       0.21038    0.41280    0.90100    1.000
    Si723    Si       0.15166    0.49384    0.92830    1.000
    N724     N        0.11493    0.48486    0.90710    1.000
    Si725    Si       0.22561    0.48274    0.91405    1.000
    Si726    Si       0.14039    0.39046    0.90477    1.000
    N727     N        0.07218    0.31840    0.95137    1.000
    N728     N        0.09532    0.37129    0.98670    1.000
    Si729    Si       0.07518    0.33147    0.99261    1.000
    N730     N        0.99248    0.28342    0.97309    1.000
    N731     N        0.13938    0.29996    0.95946    1.000
    N732     N        0.19744    0.33716    0.97487    1.000
    Si733    Si       0.15135    0.27116    0.98985    1.000
    Si734    Si       0.17377    0.31858    0.94070    1.000
    Si735    Si       0.18183    0.37668    0.96275    1.000
    N736     N        0.01861    0.47313    0.96970    1.000
    N737     N        0.05477    0.41856    0.98448    1.000
    N738     N        0.08329    0.48335    0.96501    1.000
    Si739    Si       0.08008    0.39707    0.95356    1.000
    Si740    Si       0.05442    0.46076    0.99189    1.000
    N741     N        0.14474    0.46207    0.95804    1.000
    N742     N        0.23745    0.46806    0.95369    1.000
    N743     N        0.20794    0.40906    0.94403    1.000
    N744     N        0.15807    0.39711    0.99251    1.000
    N745     N        0.11334    0.41244    0.93063    1.000
    Si746    Si       0.10195    0.54432    0.03402    1.000
    N747     N        0.00198    0.50819    0.02699    1.000
    N748     N        0.06610    0.53972    0.05710    1.000
    N749     N        0.12469    0.58350    0.03684    1.000
    N750     N        0.22888    0.58883    0.01439    1.000
    N751     N        0.17236    0.63446    0.02946    1.000
    Si752    Si       0.19677    0.61583    0.99825    1.000
    N753     N        0.12233    0.50759    0.02130    1.000
    Si754    Si       0.08762    0.69958    0.03339    1.000
    N755     N        0.06597    0.66397    0.02093    1.000
    Si756    Si       0.02325    0.74603    0.04638    1.000
    N757     N        0.06102    0.73433    0.02865    1.000
    N758     N        0.12562    0.69302    0.01228    1.000
    N759     N        0.22368    0.75289    0.04708    1.000
    Si760    Si       0.16182    0.67537    0.02731    1.000
    Si761    Si       0.05801    0.55784    0.09647    1.000
    N762     N        0.07082    0.59991    0.10017    1.000
    N763     N        0.99951    0.61535    0.08627    1.000
    Si764    Si       0.03600    0.62399    0.11009    1.000
    N765     N        0.14530    0.61251    0.09862    1.000
    N766     N        0.18728    0.57103    0.06677    1.000
    Si767    Si       0.18640    0.54790    0.10379    1.000
    N768     N        0.14654    0.52950    0.10950    1.000
    Si769    Si       0.15719    0.60367    0.05885    1.000
    Si770    Si       0.22947    0.57797    0.05675    1.000
    N771     N        0.04643    0.66431    0.09750    1.000
    Si772    Si       0.00688    0.68201    0.08558    1.000
    N773     N        0.01647    0.72373    0.08254    1.000
    N774     N        0.10439    0.70175    0.07385    1.000
    N775     N        0.17781    0.69754    0.06065    1.000
    Si776    Si       0.21913    0.71150    0.05981    1.000
    N777     N        0.22695    0.70945    0.10272    1.000
    Si778    Si       0.14516    0.71875    0.08134    1.000
    Si779    Si       0.04319    0.54201    0.15415    1.000
    N780     N        0.07504    0.52872    0.12890    1.000
    N781     N        0.02168    0.56012    0.12137    1.000
    N782     N        0.02137    0.62987    0.15133    1.000
    Si783    Si       0.10700    0.61233    0.11891    1.000
    N784     N        0.11738    0.58216    0.14914    1.000
    Si785    Si       0.11742    0.53841    0.14058    1.000
    N786     N        0.19179    0.57809    0.13437    1.000
    Si787    Si       0.16887    0.61513    0.13579    1.000
    Si788    Si       0.23218    0.60098    0.13487    1.000
    N789     N        0.22005    0.52170    0.11396    1.000
    N790     N        0.10505    0.65447    0.13272    1.000
    N791     N        0.07118    0.72053    0.12963    1.000
    N792     N        0.00466    0.72427    0.14790    1.000
    Si793    Si       0.03313    0.73494    0.11868    1.000
    Si794    Si       0.08428    0.68495    0.10935    1.000
    Si795    Si       0.14137    0.72695    0.16120    1.000
    Si796    Si       0.24153    0.74435    0.12136    1.000
    N797     N        0.20310    0.69105    0.16788    1.000
    N798     N        0.20117    0.64422    0.12506    1.000
    N799     N        0.11764    0.76216    0.15283    1.000
    Si800    Si       0.19412    0.68718    0.12330    1.000
    N801     N        0.15446    0.70735    0.12251    1.000
    Si802    Si       0.09734    0.58635    0.18783    1.000
    Si803    Si       0.00403    0.54388    0.21300    1.000
    Si804    Si       0.02769    0.60553    0.18908    1.000
    N805     N        0.01899    0.51829    0.18234    1.000
    N806     N        0.05725    0.57528    0.17887    1.000
    N807     N        0.09557    0.62876    0.19859    1.000
    N808     N        0.99075    0.58299    0.19801    1.000
    N809     N        0.03684    0.62194    0.22970    1.000
    N810     N        0.11860    0.56954    0.22523    1.000
    N811     N        0.22991    0.54101    0.19005    1.000
    Si812    Si       0.23438    0.58193    0.20439    1.000
    Si813    Si       0.12936    0.52938    0.21662    1.000
    N814     N        0.17053    0.52012    0.22768    1.000
    N815     N        0.23036    0.61491    0.17568    1.000
    N816     N        0.12890    0.51815    0.17618    1.000
    N817     N        0.99960    0.70862    0.21847    1.000
    Si818    Si       0.10095    0.69895    0.22113    1.000
    Si819    Si       0.01069    0.73692    0.18811    1.000
    N820     N        0.04985    0.75481    0.19131    1.000
    Si821    Si       0.20305    0.64878    0.18281    1.000
    Si822    Si       0.21263    0.72817    0.19089    1.000
    N823     N        0.22825    0.72248    0.22920    1.000
    N824     N        0.12004    0.69738    0.18285    1.000
    N825     N        0.17302    0.74444    0.18684    1.000
    N826     N        0.20910    0.65338    0.22530    1.000
    N827     N        0.16028    0.63607    0.17256    1.000
    Si828    Si       0.12014    0.65410    0.17416    1.000
    N829     N        0.08179    0.61225    0.27103    1.000
    Si830    Si       0.06247    0.51753    0.25651    1.000
    N831     N        0.03267    0.54846    0.24503    1.000
    Si832    Si       0.04143    0.58902    0.26044    1.000
    N833     N        0.08444    0.54650    0.28361    1.000
    N834     N        0.00983    0.60549    0.28544    1.000
    Si835    Si       0.11241    0.57530    0.26771    1.000
    Si836    Si       0.18309    0.55057    0.25612    1.000
    Si837    Si       0.20093    0.62228    0.25584    1.000
    N838     N        0.15016    0.55474    0.28383    1.000
    N839     N        0.23590    0.61982    0.28064    1.000
    N840     N        0.20971    0.53161    0.28580    1.000
    N841     N        0.20246    0.58352    0.23562    1.000
    Si842    Si       0.00565    0.63904    0.25798    1.000
    Si843    Si       0.07973    0.64045    0.23765    1.000
    Si844    Si       0.02982    0.70469    0.25028    1.000
    N845     N        0.03962    0.74424    0.26121    1.000
    N846     N        0.01137    0.67896    0.27967    1.000
    N847     N        0.10468    0.73752    0.23554    1.000
    N848     N        0.06209    0.68375    0.23048    1.000
    N849     N        0.11854    0.66542    0.24655    1.000
    N850     N        0.16191    0.71736    0.27781    1.000
    Si851    Si       0.13593    0.74936    0.26282    1.000
    N852     N        0.16874    0.63809    0.28094    1.000
    Si853    Si       0.14905    0.67611    0.27595    1.000
    Si854    Si       0.23390    0.75775    0.25393    1.000
    Si855    Si       0.07060    0.54627    0.32355    1.000
    Si856    Si       0.08128    0.61749    0.31510    1.000
    N857     N        0.05783    0.58570    0.33361    1.000
    N858     N        0.04225    0.51314    0.32703    1.000
    Si859    Si       0.99906    0.50975    0.31589    1.000
    N860     N        0.12179    0.60391    0.32655    1.000
    Si861    Si       0.17422    0.53186    0.31359    1.000
    N862     N        0.07075    0.65307    0.33655    1.000
    N863     N        0.00248    0.72690    0.33849    1.000
    Si864    Si       0.99422    0.68855    0.31974    1.000
    Si865    Si       0.13056    0.72308    0.32182    1.000
    Si866    Si       0.15312    0.63370    0.32076    1.000
    N867     N        0.13297    0.67608    0.31833    1.000
    Si868    Si       0.19488    0.71789    0.30641    1.000
    N869     N        0.21260    0.67975    0.31777    1.000
    N870     N        0.16962    0.73358    0.33889    1.000
    N871     N        0.11906    0.76072    0.30235    1.000
    N872     N        0.22557    0.74575    0.29530    1.000
    N873     N        0.04268    0.55162    0.39182    1.000
    Si874    Si       0.03419    0.58862    0.36943    1.000
    N875     N        0.04186    0.62324    0.39470    1.000
    Si876    Si       0.07934    0.52921    0.38844    1.000
    N877     N        0.10189    0.54068    0.35430    1.000
    N878     N        0.99168    0.59217    0.35748    1.000
    N879     N        0.13319    0.58825    0.39402    1.000
    Si880    Si       0.20085    0.54419    0.38573    1.000
    N881     N        0.22606    0.58057    0.38567    1.000
    Si882    Si       0.13428    0.57200    0.35341    1.000
    Si883    Si       0.15041    0.62920    0.39492    1.000
    N884     N        0.17251    0.55014    0.35216    1.000
    N885     N        0.17528    0.63128    0.35682    1.000
    Si886    Si       0.08604    0.72423    0.39505    1.000
    Si887    Si       0.04177    0.65831    0.36872    1.000
    N888     N        0.05499    0.68918    0.39839    1.000
    N889     N        0.10257    0.71744    0.35618    1.000
    N890     N        0.00115    0.65832    0.35215    1.000
    Si891    Si       0.10492    0.67393    0.35017    1.000
    N892     N        0.21565    0.67988    0.39300    1.000
    Si893    Si       0.20986    0.65596    0.35709    1.000
    N894     N        0.11974    0.65753    0.38689    1.000
    N895     N        0.23894    0.74602    0.36620    1.000
    Si896    Si       0.01979    0.54599    0.42887    1.000
    N897     N        0.01413    0.58527    0.44737    1.000
    Si898    Si       0.03176    0.62484    0.43695    1.000
    N899     N        0.10292    0.52982    0.42444    1.000
    N900     N        0.04485    0.52590    0.45879    1.000
    Si901    Si       0.08487    0.51151    0.46130    1.000
    N902     N        0.06176    0.62743    0.46768    1.000
    Si903    Si       0.13605    0.56127    0.42884    1.000
    N904     N        0.17571    0.54357    0.42211    1.000
    Si905    Si       0.19031    0.52147    0.45922    1.000
    N906     N        0.23654    0.52148    0.46016    1.000
    N907     N        0.12947    0.58403    0.46658    1.000
    N908     N        0.00542    0.66005    0.43846    1.000
    N909     N        0.01614    0.73404    0.43734    1.000
    Si910    Si       0.03389    0.69285    0.43604    1.000
    Si911    Si       0.19928    0.67096    0.43259    1.000
    N912     N        0.17448    0.63710    0.42979    1.000
    N913     N        0.11604    0.73126    0.42555    1.000
    Si914    Si       0.15867    0.74073    0.43119    1.000
    N915     N        0.17487    0.70309    0.44767    1.000
    N916     N        0.23063    0.65848    0.45934    1.000
    Si917    Si       0.05377    0.61503    0.50771    1.000
    N918     N        0.01099    0.61568    0.51269    1.000
    Si919    Si       0.02084    0.51983    0.49522    1.000
    N920     N        0.07232    0.57749    0.51866    1.000
    N921     N        0.99545    0.55098    0.50861    1.000
    N922     N        0.10855    0.52440    0.49317    1.000
    Si923    Si       0.11219    0.56640    0.50208    1.000
    N924     N        0.19158    0.54517    0.49472    1.000
    N925     N        0.18439    0.61171    0.49088    1.000
    Si926    Si       0.22340    0.62548    0.48541    1.000
    Si927    Si       0.23380    0.55209    0.49187    1.000
    Si928    Si       0.17828    0.57882    0.51883    1.000
    Si929    Si       0.15301    0.62212    0.46396    1.000
    Si930    Si       0.08444    0.66093    0.48290    1.000
    Si931    Si       0.04753    0.72666    0.49627    1.000
    N932     N        0.00492    0.72632    0.50763    1.000
    N933     N        0.05904    0.69402    0.47179    1.000
    Si934    Si       0.11240    0.74992    0.46711    1.000
    Si935    Si       0.21611    0.68321    0.52129    1.000
    N936     N        0.12559    0.65693    0.47056    1.000
    Si937    Si       0.14957    0.69129    0.48262    1.000
    N938     N        0.17299    0.67813    0.51551    1.000
    N939     N        0.23408    0.64398    0.52486    1.000
    N940     N        0.12339    0.72093    0.49988    1.000
    Si941    Si       0.05564    0.54941    0.54878    1.000
    N942     N        0.02266    0.56680    0.57291    1.000
    N943     N        0.08973    0.54604    0.57566    1.000
    N944     N        0.04340    0.51324    0.53023    1.000
    Si945    Si       0.11862    0.57807    0.57271    1.000
    N946     N        0.13792    0.57453    0.53444    1.000
    Si947    Si       0.21990    0.62340    0.56479    1.000
    N948     N        0.20794    0.58356    0.55016    1.000
    Si949    Si       0.09305    0.65282    0.56523    1.000
    N950     N        0.06418    0.72035    0.53671    1.000
    Si951    Si       0.03631    0.70401    0.56706    1.000
    N952     N        0.00147    0.68071    0.55517    1.000
    Si953    Si       0.10897    0.71822    0.54093    1.000
    N954     N        0.07840    0.64846    0.52464    1.000
    Si955    Si       0.16732    0.68371    0.56299    1.000
    N956     N        0.20547    0.71097    0.55624    1.000
    N957     N        0.12380    0.68272    0.55880    1.000
    N958     N        0.18193    0.64275    0.57557    1.000
    N959     N        0.12012    0.74388    0.57428    1.000
    Si960    Si       0.22263    0.74484    0.53329    1.000
    Si961    Si       0.08457    0.60396    0.62779    1.000
    Si962    Si       0.01708    0.59424    0.60646    1.000
    N963     N        0.04373    0.62138    0.62998    1.000
    Si964    Si       0.08892    0.52607    0.61498    1.000
    N965     N        0.00060    0.56882    0.63657    1.000
    N966     N        0.07656    0.56176    0.63552    1.000
    N967     N        0.09813    0.61532    0.58706    1.000
    N968     N        0.14795    0.57764    0.60319    1.000
    Si969    Si       0.17097    0.61501    0.60738    1.000
    N970     N        0.19540    0.52991    0.60945    1.000
    Si971    Si       0.15949    0.54351    0.62867    1.000
    N972     N        0.21109    0.59733    0.61466    1.000
    Si973    Si       0.21619    0.56233    0.58896    1.000
    N974     N        0.13072    0.51234    0.61912    1.000
    N975     N        0.99523    0.67458    0.63355    1.000
    Si976    Si       0.03641    0.66319    0.62371    1.000
    N977     N        0.02339    0.72931    0.59928    1.000
    N978     N        0.05978    0.67350    0.58852    1.000
    Si979    Si       0.14169    0.73509    0.61050    1.000
    N980     N        0.16872    0.70142    0.60518    1.000
    Si981    Si       0.22442    0.72420    0.59518    1.000
    N982     N        0.15851    0.64084    0.64123    1.000
    N983     N        0.22306    0.74474    0.63647    1.000
    N984     N        0.24255    0.69027    0.61528    1.000
    N985     N        0.03105    0.52581    0.67645    1.000
    Si986    Si       0.03932    0.56334    0.65914    1.000
    N987     N        0.03886    0.59656    0.68789    1.000
    N988     N        0.09966    0.62000    0.66534    1.000
    Si989    Si       0.06021    0.63284    0.68031    1.000
    N990     N        0.16022    0.54737    0.67242    1.000
    N991     N        0.22019    0.59294    0.69148    1.000
    Si992    Si       0.13750    0.63006    0.68080    1.000
    Si993    Si       0.18449    0.57166    0.69948    1.000
    Si994    Si       0.00980    0.69816    0.67726    1.000
    Si995    Si       0.08253    0.71475    0.66754    1.000
    N996     N        0.05083    0.68021    0.66392    1.000
    N997     N        0.06370    0.75393    0.66060    1.000
    N998     N        0.99245    0.73231    0.65673    1.000
    N999     N        0.12177    0.71256    0.64644    1.000
    Si1000   Si       0.15608    0.68457    0.64688    1.000
    N1001    N        0.19327    0.69292    0.67197    1.000
    N1002    N        0.13570    0.67113    0.69563    1.000
    Si1003   Si       0.23128    0.70697    0.65508    1.000
    N1004    N        0.01805    0.54985    0.73865    1.000
    Si1005   Si       0.01123    0.59061    0.72087    1.000
    Si1006   Si       0.01287    0.51656    0.71448    1.000
    N1007    N        0.01062    0.61726    0.75651    1.000
    Si1008   Si       0.05258    0.62870    0.75777    1.000
    N1009    N        0.12075    0.54434    0.73718    1.000
    N1010    N        0.19804    0.54193    0.73074    1.000
    Si1011   Si       0.17204    0.61990    0.74662    1.000
    N1012    N        0.15952    0.60677    0.70888    1.000
    Si1013   Si       0.14078    0.51316    0.76350    1.000
    N1014    N        0.21155    0.59895    0.75938    1.000
    Si1015   Si       0.13382    0.52520    0.70021    1.000
    N1016    N        0.07031    0.64677    0.72079    1.000
    N1017    N        0.09091    0.72091    0.70978    1.000
    Si1018   Si       0.05605    0.74232    0.73220    1.000
    N1019    N        0.02344    0.71672    0.71749    1.000
    Si1020   Si       0.10089    0.67928    0.72122    1.000
    N1021    N        0.18028    0.66293    0.74250    1.000
    N1022    N        0.22778    0.75547    0.74571    1.000
    Si1023   Si       0.17148    0.69045    0.71023    1.000
    N1024    N        0.16266    0.73171    0.72108    1.000
    Si1025   Si       0.12348    0.75069    0.72057    1.000
    N1026    N        0.01047    0.56974    0.80586    1.000
    Si1027   Si       0.03967    0.55775    0.77568    1.000
    N1028    N        0.05290    0.51806    0.78500    1.000
    Si1029   Si       0.11106    0.57349    0.76840    1.000
    N1030    N        0.06961    0.58775    0.76434    1.000
    N1031    N        0.11229    0.54356    0.80075    1.000
    Si1032   Si       0.99139    0.60901    0.79486    1.000
    Si1033   Si       0.23284    0.60488    0.80124    1.000
    N1034    N        0.13907    0.60592    0.77225    1.000
    Si1035   Si       0.20433    0.55472    0.77049    1.000
    N1036    N        0.17653    0.52217    0.78750    1.000
    N1037    N        0.23109    0.56039    0.80313    1.000
    Si1038   Si       0.14416    0.61827    0.81414    1.000
    N1039    N        0.05335    0.66062    0.78654    1.000
    Si1040   Si       0.09304    0.67348    0.79758    1.000
    Si1041   Si       0.01927    0.67539    0.80872    1.000
    N1042    N        0.05398    0.75173    0.77453    1.000
    N1043    N        0.09427    0.71363    0.81671    1.000
    N1044    N        0.98839    0.68371    0.78010    1.000
    N1045    N        0.12062    0.75752    0.76456    1.000
    N1046    N        0.16844    0.71138    0.79475    1.000
    N1047    N        0.23037    0.69018    0.77840    1.000
    Si1048   Si       0.18921    0.67506    0.78290    1.000
    N1049    N        0.11273    0.68656    0.76280    1.000
    N1050    N        0.18087    0.64122    0.80898    1.000
    Si1051   Si       0.12695    0.72162    0.78478    1.000
    N1052    N        0.06822    0.60458    0.85845    1.000
    Si1053   Si       0.03384    0.62986    0.86172    1.000
    N1054    N        0.09941    0.54549    0.87422    1.000
    Si1055   Si       0.12936    0.54978    0.84196    1.000
    N1056    N        0.14704    0.58852    0.84629    1.000
    N1057    N        0.16015    0.52361    0.85114    1.000
    N1058    N        0.23048    0.61691    0.84479    1.000
    N1059    N        0.22134    0.55175    0.87461    1.000
    N1060    N        0.00625    0.63704    0.83112    1.000
    Si1061   Si       0.09651    0.64325    0.86652    1.000
    N1062    N        0.02593    0.71145    0.83381    1.000
    N1063    N        0.05864    0.66522    0.86745    1.000
    Si1064   Si       0.04174    0.70469    0.87519    1.000
    Si1065   Si       0.11124    0.71316    0.85804    1.000
    Si1066   Si       0.05828    0.74035    0.81896    1.000
    N1067    N        0.15295    0.72891    0.85492    1.000
    N1068    N        0.11023    0.64386    0.82444    1.000
    Si1069   Si       0.19920    0.64692    0.84831    1.000
    N1070    N        0.22602    0.74295    0.82228    1.000
    N1071    N        0.21258    0.68994    0.85033    1.000
    Si1072   Si       0.18896    0.72393    0.83116    1.000
    Si1073   Si       0.03330    0.54901    0.91955    1.000
    Si1074   Si       0.08765    0.58242    0.88995    1.000
    N1075    N        0.06559    0.57548    0.92574    1.000
    N1076    N        0.00195    0.56176    0.89437    1.000
    N1077    N        0.04964    0.51196    0.90376    1.000
    N1078    N        0.11284    0.61709    0.90131    1.000
    N1079    N        0.01349    0.62995    0.89958    1.000
    Si1080   Si       0.18220    0.53871    0.88420    1.000
    N1081    N        0.16598    0.57055    0.90997    1.000
    Si1082   Si       0.15256    0.60527    0.88770    1.000
    N1083    N        0.01917    0.69942    0.91007    1.000
    Si1084   Si       0.02102    0.66194    0.93010    1.000
    N1085    N        0.07572    0.73200    0.87545    1.000
    Si1086   Si       0.22166    0.68604    0.89341    1.000
    N1087    N        0.18504    0.70135    0.91041    1.000
    Si1088   Si       0.17954    0.74148    0.92797    1.000
    N1089    N        0.17434    0.64105    0.88533    1.000
    Si1090   Si       0.15323    0.67244    0.90671    1.000
    N1091    N        0.12014    0.67926    0.88121    1.000
    Si1092   Si       0.06118    0.57298    0.97037    1.000
    N1093    N        0.03266    0.53818    0.96265    1.000
    N1094    N        0.09852    0.61557    0.97551    1.000
    Si1095   Si       0.99679    0.61754    0.98171    1.000
    N1096    N        0.03675    0.60529    0.98819    1.000
    N1097    N        0.09593    0.55431    0.99043    1.000
    Si1098   Si       0.00288    0.51451    0.98353    1.000
    Si1099   Si       0.11298    0.51292    0.97875    1.000
    N1100    N        0.16556    0.58963    0.97862    1.000
    Si1101   Si       0.17773    0.56032    0.95025    1.000
    N1102    N        0.14793    0.52662    0.95578    1.000
    N1103    N        0.22107    0.56144    0.95159    1.000
    Si1104   Si       0.12657    0.58903    0.99269    1.000
    Si1105   Si       0.06297    0.63944    0.98679    1.000
    N1106    N        0.06115    0.65507    0.94529    1.000
    N1107    N        0.99323    0.65724    0.96423    1.000
    Si1108   Si       0.10223    0.64016    0.94027    1.000
    N1109    N        0.13200    0.67169    0.94562    1.000
    N1110    N        0.14221    0.74149    0.95318    1.000
    N1111    N        0.22451    0.64103    0.97448    1.000
    Si1112   Si       0.22642    0.68140    0.99320    1.000
    N1113    N        0.18346    0.69067    0.99153    1.000
    N1114    N        0.21252    0.75011    0.95524    1.000
    Si1115   Si       0.14281    0.70307    0.97432    1.000
    N1116    N        0.01603    0.86329    0.03649    1.000
    Si1117   Si       0.06833    0.77784    0.02059    1.000
    N1118    N        0.03024    0.78867    0.05311    1.000
    Si1119   Si       0.21436    0.85478    0.04241    1.000
    N1120    N        0.18823    0.86159    0.00785    1.000
    Si1121   Si       0.15350    0.83536    0.00797    1.000
    N1122    N        0.13833    0.83247    0.04863    1.000
    N1123    N        0.22905    0.80332    0.99956    1.000
    N1124    N        0.99397    0.99547    0.03459    1.000
    N1125    N        0.09086    0.89148    0.04794    1.000
    Si1126   Si       0.08014    0.95814    0.03571    1.000
    N1127    N        0.06774    0.99729    0.01617    1.000
    N1128    N        0.03920    0.93118    0.02258    1.000
    Si1129   Si       0.04664    0.89586    0.04574    1.000
    Si1130   Si       0.02502    0.00736    0.00708    1.000
    N1131    N        0.09792    0.94086    0.99827    1.000
    Si1132   Si       0.11475    0.90145    0.01207    1.000
    Si1133   Si       0.15096    0.96245    0.02054    1.000
    N1134    N        0.15625    0.92056    0.00988    1.000
    N1135    N        0.19436    0.97507    0.02999    1.000
    N1136    N        0.12064    0.96716    0.05177    1.000
    Si1137   Si       0.22327    0.97258    0.99752    1.000
    N1138    N        0.07572    0.83806    0.08749    1.000
    N1139    N        0.01533    0.83342    0.10142    1.000
    Si1140   Si       0.06163    0.79731    0.08756    1.000
    Si1141   Si       0.10925    0.86228    0.07238    1.000
    Si1142   Si       0.00984    0.82598    0.05948    1.000
    N1143    N        0.09262    0.78110    0.06058    1.000
    Si1144   Si       0.04758    0.86283    0.11019    1.000
    N1145    N        0.19945    0.82098    0.06862    1.000
    Si1146   Si       0.19709    0.77819    0.07384    1.000
    Si1147   Si       0.13183    0.79454    0.07012    1.000
    Si1148   Si       0.17087    0.84668    0.09421    1.000
    N1149    N        0.13536    0.88097    0.10105    1.000
    N1150    N        0.14329    0.81223    0.10938    1.000
    N1151    N        0.15761    0.75990    0.06828    1.000
    Si1152   Si       0.03784    0.96847    0.10600    1.000
    N1153    N        0.06747    0.96176    0.07680    1.000
    N1154    N        0.03434    0.89727    0.08905    1.000
    N1155    N        0.99921    0.95442    0.09177    1.000
    Si1156   Si       0.99285    0.91218    0.10082    1.000
    Si1157   Si       0.11387    0.99539    0.08531    1.000
    Si1158   Si       0.21819    0.98890    0.06305    1.000
    N1159    N        0.15324    0.99447    0.10700    1.000
    N1160    N        0.20255    0.88411    0.07257    1.000
    Si1161   Si       0.21488    0.91430    0.10090    1.000
    N1162    N        0.23216    0.95186    0.08104    1.000
    Si1163   Si       0.00826    0.80306    0.13248    1.000
    N1164    N        0.05210    0.87681    0.15026    1.000
    N1165    N        0.04475    0.77750    0.12368    1.000
    N1166    N        0.08550    0.81397    0.16330    1.000
    N1167    N        0.01684    0.81692    0.17154    1.000
    Si1168   Si       0.07183    0.76890    0.15842    1.000
    Si1169   Si       0.12722    0.80596    0.15061    1.000
    N1170    N        0.19535    0.84995    0.13205    1.000
    Si1171   Si       0.22566    0.81848    0.12316    1.000
    Si1172   Si       0.17704    0.85276    0.17224    1.000
    N1173    N        0.14820    0.88422    0.17305    1.000
    N1174    N        0.23875    0.80784    0.16366    1.000
    N1175    N        0.21345    0.77700    0.11290    1.000
    Si1176   Si       0.03312    0.91451    0.16269    1.000
    Si1177   Si       0.08913    0.96694    0.15257    1.000
    N1178    N        0.05126    0.94848    0.14222    1.000
    N1179    N        0.09155    0.00087    0.12431    1.000
    N1180    N        0.99222    0.91017    0.14470    1.000
    Si1181   Si       0.16266    0.96378    0.13756    1.000
    Si1182   Si       0.14383    0.90533    0.13574    1.000
    N1183    N        0.12348    0.94316    0.14483    1.000
    N1184    N        0.18317    0.92629    0.12670    1.000
    N1185    N        0.18578    0.98159    0.16933    1.000
    N1186    N        0.05416    0.85630    0.21893    1.000
    Si1187   Si       0.05712    0.84284    0.17769    1.000
    Si1188   Si       0.99220    0.80614    0.20530    1.000
    Si1189   Si       0.23353    0.82052    0.20564    1.000
    N1190    N        0.20634    0.85407    0.20404    1.000
    Si1191   Si       0.17489    0.78520    0.20803    1.000
    N1192    N        0.21429    0.78813    0.22623    1.000
    N1193    N        0.15931    0.81304    0.17844    1.000
    N1194    N        0.12386    0.85229    0.22827    1.000
    N1195    N        0.10237    0.91837    0.21829    1.000
    N1196    N        0.02961    0.91898    0.20664    1.000
    N1197    N        0.08943    0.98214    0.19422    1.000
    Si1198   Si       0.06352    0.89944    0.22789    1.000
    Si1199   Si       0.10883    0.96032    0.22607    1.000
    Si1200   Si       0.99663    0.92606    0.23417    1.000
    Si1201   Si       0.21202    0.89141    0.22371    1.000
    Si1202   Si       0.21778    0.95740    0.18697    1.000
    Si1203   Si       0.13539    0.89150    0.21336    1.000
    N1204    N        0.22863    0.91680    0.19313    1.000
    N1205    N        0.21860    0.97060    0.22770    1.000
    Si1206   Si       0.04646    0.82925    0.25119    1.000
    N1207    N        0.07887    0.80029    0.24936    1.000
    N1208    N        0.01220    0.80292    0.24329    1.000
    Si1209   Si       0.00648    0.77056    0.27168    1.000
    Si1210   Si       0.06858    0.76113    0.23265    1.000
    N1211    N        0.03867    0.84707    0.28925    1.000
    Si1212   Si       0.11966    0.81762    0.25322    1.000
    N1213    N        0.14834    0.78490    0.24401    1.000
    N1214    N        0.22378    0.83401    0.28695    1.000
    N1215    N        0.99489    0.89301    0.26470    1.000
    N1216    N        0.09181    0.96825    0.26624    1.000
    N1217    N        0.06089    0.90760    0.26931    1.000
    Si1218   Si       0.06352    0.00065    0.27833    1.000
    Si1219   Si       0.00163    0.00506    0.24107    1.000
    N1220    N        0.04509    0.00608    0.23941    1.000
    Si1221   Si       0.09444    0.92958    0.28947    1.000
    Si1222   Si       0.03065    0.88887    0.29286    1.000
    N1223    N        0.13033    0.90571    0.28914    1.000
    N1224    N        0.23529    0.89488    0.25966    1.000
    N1225    N        0.17136    0.90206    0.23467    1.000
    Si1226   Si       0.18286    0.99150    0.24422    1.000
    N1227    N        0.15022    0.96286    0.24259    1.000
    Si1228   Si       0.16137    0.92773    0.26600    1.000
    N1229    N        0.06815    0.80501    0.33570    1.000
    Si1230   Si       0.02592    0.82665    0.32876    1.000
    N1231    N        0.00417    0.79346    0.30939    1.000
    Si1232   Si       0.10839    0.80019    0.31906    1.000
    Si1233   Si       0.99143    0.76876    0.34428    1.000
    N1234    N        0.11323    0.86973    0.34689    1.000
    N1235    N        0.17782    0.86612    0.33182    1.000
    Si1236   Si       0.20832    0.83570    0.32682    1.000
    Si1237   Si       0.13832    0.86833    0.31194    1.000
    N1238    N        0.20267    0.79570    0.34130    1.000
    Si1239   Si       0.23690    0.76976    0.32951    1.000
    N1240    N        0.12731    0.82993    0.29386    1.000
    N1241    N        0.08634    0.93737    0.33032    1.000
    N1242    N        0.02201    0.91640    0.32398    1.000
    N1243    N        0.03745    0.99053    0.31176    1.000
    Si1244   Si       0.04378    0.95367    0.33318    1.000
    Si1245   Si       0.19226    0.97766    0.31822    1.000
    N1246    N        0.23364    0.99399    0.32989    1.000
    N1247    N        0.19256    0.94183    0.29357    1.000
    Si1248   Si       0.23412    0.92827    0.28828    1.000
    Si1249   Si       0.05574    0.80107    0.37941    1.000
    N1250    N        0.01232    0.79809    0.36921    1.000
    N1251    N        0.08223    0.83254    0.39610    1.000
    N1252    N        0.03383    0.85947    0.36164    1.000
    Si1253   Si       0.06026    0.87057    0.39549    1.000
    N1254    N        0.06251    0.76153    0.39826    1.000
    Si1255   Si       0.99501    0.81225    0.40738    1.000
    Si1256   Si       0.99219    0.87308    0.36474    1.000
    Si1257   Si       0.12047    0.83732    0.37638    1.000
    Si1258   Si       0.16934    0.77337    0.35983    1.000
    N1259    N        0.15332    0.85736    0.39799    1.000
    N1260    N        0.13419    0.80171    0.35578    1.000
    Si1261   Si       0.22507    0.76162    0.40523    1.000
    N1262    N        0.18176    0.76270    0.40054    1.000
    N1263    N        0.08271    0.90702    0.38785    1.000
    N1264    N        0.04421    0.96354    0.37581    1.000
    Si1265   Si       0.07718    0.94812    0.40020    1.000
    Si1266   Si       0.02961    0.00394    0.38475    1.000
    Si1267   Si       0.10947    0.91180    0.35590    1.000
    N1268    N        0.11250    0.97425    0.39636    1.000
    Si1269   Si       0.17165    0.88581    0.37159    1.000
    N1270    N        0.20855    0.90311    0.38558    1.000
    N1271    N        0.17018    0.98577    0.35436    1.000
    N1272    N        0.14878    0.92327    0.36893    1.000
    Si1273   Si       0.15535    0.96025    0.38931    1.000
    N1274    N        0.02766    0.80751    0.43253    1.000
    Si1275   Si       0.03036    0.84354    0.45660    1.000
    Si1276   Si       0.04360    0.76636    0.43651    1.000
    N1277    N        0.04300    0.88062    0.43555    1.000
    Si1278   Si       0.16100    0.85748    0.44087    1.000
    Si1279   Si       0.23066    0.82841    0.44070    1.000
    N1280    N        0.19137    0.82942    0.45779    1.000
    N1281    N        0.12778    0.85126    0.46639    1.000
    N1282    N        0.01556    0.00132    0.42414    1.000
    Si1283   Si       0.04954    0.98954    0.45188    1.000
    N1284    N        0.06075    0.94906    0.43960    1.000
    Si1285   Si       0.05162    0.91388    0.46037    1.000
    N1286    N        0.22555    0.93470    0.45938    1.000
    Si1287   Si       0.21899    0.98510    0.44606    1.000
    Si1288   Si       0.17702    0.93800    0.46513    1.000
    N1289    N        0.18370    0.96883    0.42468    1.000
    Si1290   Si       0.21679    0.90370    0.42934    1.000
    N1291    N        0.17531    0.89962    0.44337    1.000
    Si1292   Si       0.09663    0.86528    0.49231    1.000
    N1293    N        0.06402    0.83698    0.48354    1.000
    Si1294   Si       0.06330    0.79606    0.49608    1.000
    N1295    N        0.02061    0.79188    0.50327    1.000
    N1296    N        0.99590    0.85092    0.47914    1.000
    Si1297   Si       0.99652    0.82744    0.51519    1.000
    N1298    N        0.07139    0.76105    0.47148    1.000
    Si1299   Si       0.18045    0.79399    0.48682    1.000
    N1300    N        0.21623    0.78010    0.50952    1.000
    N1301    N        0.16261    0.81277    0.52203    1.000
    N1302    N        0.15302    0.76787    0.46554    1.000
    N1303    N        0.03283    0.98911    0.49041    1.000
    Si1304   Si       0.00543    0.95801    0.50012    1.000
    N1305    N        0.08560    0.90538    0.48616    1.000
    N1306    N        0.01728    0.91981    0.48681    1.000
    Si1307   Si       0.10587    0.94091    0.50248    1.000
    Si1308   Si       0.05910    0.00342    0.52243    1.000
    N1309    N        0.13776    0.95908    0.48027    1.000
    Si1310   Si       0.15642    0.99443    0.49510    1.000
    N1311    N        0.19952    0.98928    0.48931    1.000
    N1312    N        0.18498    0.92734    0.50932    1.000
    Si1313   Si       0.23339    0.99123    0.51444    1.000
    Si1314   Si       0.22570    0.92213    0.50454    1.000
    Si1315   Si       0.09715    0.78038    0.57291    1.000
    N1316    N        0.99954    0.86096    0.54176    1.000
    N1317    N        0.09001    0.79358    0.52957    1.000
    N1318    N        0.10759    0.85896    0.53452    1.000
    Si1319   Si       0.00258    0.86803    0.58386    1.000
    N1320    N        0.17022    0.86965    0.55680    1.000
    Si1321   Si       0.19099    0.83122    0.54734    1.000
    Si1322   Si       0.12243    0.82107    0.53673    1.000
    N1323    N        0.12645    0.81021    0.57855    1.000
    N1324    N        0.23329    0.84004    0.53599    1.000
    Si1325   Si       0.09588    0.94812    0.56545    1.000
    N1326    N        0.00292    0.95779    0.54359    1.000
    Si1327   Si       0.02198    0.93754    0.57815    1.000
    N1328    N        0.06194    0.92063    0.57346    1.000
    N1329    N        0.08257    0.96843    0.52800    1.000
    Si1330   Si       0.19974    0.89563    0.57407    1.000
    N1331    N        0.12360    0.92420    0.54235    1.000
    Si1332   Si       0.13177    0.88633    0.56159    1.000
    N1333    N        0.15420    0.98669    0.53829    1.000
    N1334    N        0.17657    0.93114    0.58218    1.000
    Si1335   Si       0.14103    0.00594    0.57483    1.000
    N1336    N        0.22817    0.98118    0.55769    1.000
    N1337    N        0.23478    0.90914    0.55017    1.000
    Si1338   Si       0.16215    0.94452    0.54274    1.000
    Si1339   Si       0.04878    0.81810    0.62117    1.000
    N1340    N        0.04343    0.85454    0.59655    1.000
    N1341    N        0.06295    0.78377    0.59920    1.000
    N1342    N        0.01297    0.79608    0.63446    1.000
    Si1343   Si       0.03670    0.75893    0.62715    1.000
    N1344    N        0.11625    0.88395    0.60183    1.000
    N1345    N        0.16036    0.76946    0.62673    1.000
    Si1346   Si       0.15701    0.80920    0.60765    1.000
    N1347    N        0.21926    0.87157    0.60377    1.000
    Si1348   Si       0.23147    0.82878    0.60594    1.000
    Si1349   Si       0.13762    0.87656    0.64137    1.000
    N1350    N        0.19551    0.81352    0.58677    1.000
    N1351    N        0.15077    0.83307    0.64156    1.000
    Si1352   Si       0.07210    0.88750    0.59980    1.000
    N1353    N        0.99231    0.90912    0.59031    1.000
    N1354    N        0.03031    0.96690    0.61037    1.000
    Si1355   Si       0.99548    0.97483    0.64089    1.000
    N1356    N        0.05676    0.90031    0.63818    1.000
    Si1357   Si       0.04702    0.94165    0.64134    1.000
    Si1358   Si       0.02960    0.01007    0.59627    1.000
    N1359    N        0.18011    0.00185    0.60042    1.000
    N1360    N        0.11371    0.97724    0.59195    1.000
    Si1361   Si       0.21722    0.89937    0.64046    1.000
    Si1362   Si       0.18573    0.95942    0.61250    1.000
    Si1363   Si       0.11800    0.97988    0.63462    1.000
    N1364    N        0.22337    0.94152    0.62258    1.000
    Si1365   Si       0.06684    0.86925    0.66841    1.000
    Si1366   Si       0.07626    0.79042    0.68290    1.000
    N1367    N        0.06867    0.82631    0.66110    1.000
    N1368    N        0.10936    0.88060    0.67429    1.000
    N1369    N        0.04084    0.87635    0.70232    1.000
    N1370    N        0.12036    0.78590    0.69266    1.000
    Si1371   Si       0.15311    0.81112    0.68158    1.000
    N1372    N        0.19137    0.78682    0.68922    1.000
    Si1373   Si       0.22640    0.81391    0.68896    1.000
    Si1374   Si       0.19803    0.77790    0.64649    1.000
    N1375    N        0.22356    0.81482    0.64586    1.000
    N1376    N        0.99219    0.01334    0.65841    1.000
    Si1377   Si       0.07170    0.97191    0.69811    1.000
    N1378    N        0.08387    0.96211    0.65581    1.000
    N1379    N        0.01899    0.95190    0.67107    1.000
    N1380    N        0.15516    0.95909    0.64664    1.000
    N1381    N        0.17518    0.89689    0.65327    1.000
    Si1382   Si       0.16958    0.93331    0.67813    1.000
    N1383    N        0.20992    0.93544    0.69557    1.000
    N1384    N        0.06274    0.78487    0.72438    1.000
    Si1385   Si       0.99538    0.87106    0.70353    1.000
    N1386    N        0.09999    0.88119    0.74353    1.000
    Si1387   Si       0.18921    0.76416    0.72798    1.000
    Si1388   Si       0.18004    0.83717    0.74363    1.000
    N1389    N        0.22133    0.83710    0.72761    1.000
    N1390    N        0.15429    0.84571    0.70885    1.000
    N1391    N        0.17218    0.79516    0.75388    1.000
    Si1392   Si       0.13120    0.88379    0.71191    1.000
    Si1393   Si       0.01022    0.94262    0.71198    1.000
    Si1394   Si       0.06046    0.89800    0.73692    1.000
    N1395    N        0.05656    0.94036    0.72655    1.000
    N1396    N        0.99735    0.97529    0.73803    1.000
    N1397    N        0.10891    0.98882    0.71007    1.000
    N1398    N        0.04840    0.00833    0.70295    1.000
    Si1399   Si       0.20823    0.95355    0.73529    1.000
    Si1400   Si       0.13373    0.96339    0.73274    1.000
    N1401    N        0.20988    0.91837    0.76029    1.000
    N1402    N        0.14345    0.92639    0.71160    1.000
    N1403    N        0.17461    0.98227    0.73855    1.000
    N1404    N        0.03563    0.81617    0.78216    1.000
    Si1405   Si       0.00982    0.84928    0.77191    1.000
    N1406    N        0.10439    0.81976    0.78148    1.000
    Si1407   Si       0.06863    0.79263    0.76705    1.000
    Si1408   Si       0.11727    0.86243    0.78061    1.000
    Si1409   Si       0.13972    0.79186    0.78281    1.000
    N1410    N        0.16172    0.86703    0.77022    1.000
    N1411    N        0.21280    0.88270    0.81289    1.000
    N1412    N        0.03357    0.88622    0.76820    1.000
    N1413    N        0.05072    0.99864    0.77255    1.000
    N1414    N        0.04383    0.94206    0.79884    1.000
    Si1415   Si       0.01201    0.90810    0.80135    1.000
    Si1416   Si       0.02556    0.98187    0.80662    1.000
    N1417    N        0.10843    0.95093    0.76600    1.000
    Si1418   Si       0.06708    0.95705    0.76473    1.000
    N1419    N        0.11075    0.89069    0.81394    1.000
    Si1420   Si       0.18025    0.90260    0.78938    1.000
    N1421    N        0.16278    0.93630    0.81155    1.000
    Si1422   Si       0.11768    0.93228    0.80425    1.000
    N1423    N        0.20523    0.99125    0.79809    1.000
    N1424    N        0.03309    0.84480    0.85111    1.000
    N1425    N        0.05281    0.77814    0.84073    1.000
    Si1426   Si       0.01073    0.87367    0.87156    1.000
    Si1427   Si       0.02731    0.81035    0.82747    1.000
    N1428    N        0.10285    0.85415    0.87069    1.000
    Si1429   Si       0.15225    0.77351    0.86105    1.000
    Si1430   Si       0.22532    0.86418    0.84925    1.000
    N1431    N        0.22521    0.82402    0.86538    1.000
    N1432    N        0.15812    0.78856    0.82124    1.000
    Si1433   Si       0.05311    0.93894    0.84728    1.000
    N1434    N        0.01687    0.91036    0.84657    1.000
    N1435    N        0.09800    0.95633    0.83422    1.000
    N1436    N        0.03617    0.98052    0.84834    1.000
    Si1437   Si       0.10809    0.89472    0.85994    1.000
    N1438    N        0.07487    0.91801    0.87790    1.000
    Si1439   Si       0.11264    0.99545    0.84805    1.000
    N1440    N        0.15671    0.99597    0.85642    1.000
    Si1441   Si       0.18168    0.97035    0.83177    1.000
    N1442    N        0.21838    0.96008    0.85107    1.000
    N1443    N        0.05674    0.78531    0.91761    1.000
    Si1444   Si       0.07187    0.77448    0.87910    1.000
    N1445    N        0.02599    0.88310    0.91175    1.000
    Si1446   Si       0.12552    0.82701    0.89481    1.000
    Si1447   Si       0.20047    0.80931    0.89710    1.000
    N1448    N        0.17831    0.77228    0.89567    1.000
    N1449    N        0.16643    0.83765    0.89373    1.000
    N1450    N        0.22425    0.80881    0.93241    1.000
    N1451    N        0.11350    0.78824    0.87372    1.000
    Si1452   Si       0.06237    0.90699    0.91724    1.000
    N1453    N        0.09784    0.88838    0.93475    1.000
    N1454    N        0.09990    0.00772    0.88718    1.000
    Si1455   Si       0.17533    0.87845    0.89985    1.000
    Si1456   Si       0.13273    0.91127    0.92507    1.000
    Si1457   Si       0.22823    0.99276    0.92599    1.000
    N1458    N        0.22795    0.94801    0.91928    1.000
    N1459    N        0.14249    0.90390    0.88406    1.000
    Si1460   Si       0.11782    0.99219    0.92303    1.000
    N1461    N        0.11965    0.95067    0.93007    1.000
    N1462    N        0.20974    0.89229    0.87958    1.000
    Si1463   Si       0.23103    0.93179    0.87979    1.000
    N1464    N        0.05465    0.84105    0.96097    1.000
    Si1465   Si       0.05950    0.79749    0.95901    1.000
    Si1466   Si       0.09632    0.85247    0.95805    1.000
    Si1467   Si       0.01713    0.86060    0.94779    1.000
    N1468    N        0.09336    0.78654    0.98675    1.000
    N1469    N        0.03320    0.78132    0.98983    1.000
    Si1470   Si       0.99246    0.76664    0.99031    1.000
    N1471    N        0.11755    0.82030    0.93776    1.000
    Si1472   Si       0.12878    0.78374    0.96255    1.000
    Si1473   Si       0.20416    0.79069    0.96759    1.000
    N1474    N        0.16429    0.80227    0.98284    1.000
    N1475    N        0.12143    0.86098    0.99293    1.000
    N1476    N        0.23692    0.87532    0.95840    1.000
    N1477    N        0.08677    0.00129    0.95171    1.000
    Si1478   Si       0.08730    0.95587    0.95948    1.000
    Si1479   Si       0.02648    0.93391    0.98090    1.000
    N1480    N        0.00547    0.89664    0.97248    1.000
    N1481    N        0.01306    0.97759    0.97486    1.000
    N1482    N        0.05248    0.93702    0.94530    1.000
    Si1483   Si       0.99795    0.99802    0.93814    1.000
    N1484    N        0.21448    0.93195    0.98160    1.000
    N1485    N        0.21126    0.99929    0.96573    1.000
    Si1486   Si       0.18502    0.90064    0.98340    1.000
    N1487    N        0.14082    0.99740    0.99253    1.000
    N1488    N        0.17135    0.89770    0.94155    1.000
    Si1489   Si       0.23950    0.91753    0.94699    1.000
    N1490    N        0.30154    0.04638    0.01833    1.000
    Si1491   Si       0.35268    0.09930    0.00789    1.000
    N1492    N        0.33622    0.09749    0.04821    1.000
    N1493    N        0.24619    0.01779    0.04215    1.000
    N1494    N        0.43509    0.05912    0.03383    1.000
    Si1495   Si       0.47641    0.04618    0.02444    1.000
    N1496    N        0.45523    0.12566    0.01683    1.000
    N1497    N        0.33880    0.23689    0.04204    1.000
    Si1498   Si       0.26633    0.19033    0.02927    1.000
    N1499    N        0.30628    0.17638    0.01999    1.000
    N1500    N        0.24506    0.22503    0.01436    1.000
    Si1501   Si       0.32366    0.19812    0.05348    1.000
    N1502    N        0.38339    0.13147    0.99805    1.000
    Si1503   Si       0.41496    0.13743    0.02832    1.000
    Si1504   Si       0.41476    0.21013    0.00205    1.000
    N1505    N        0.41854    0.17886    0.03374    1.000
    N1506    N        0.40929    0.24517    0.02781    1.000
    N1507    N        0.26537    0.07956    0.07630    1.000
    N1508    N        0.32130    0.04603    0.09020    1.000
    Si1509   Si       0.26445    0.10481    0.11214    1.000
    Si1510   Si       0.30418    0.06988    0.05635    1.000
    N1511    N        0.34587    0.10971    0.11183    1.000
    Si1512   Si       0.36740    0.09589    0.07772    1.000
    Si1513   Si       0.42586    0.07356    0.07413    1.000
    N1514    N        0.38883    0.05938    0.09163    1.000
    N1515    N        0.45812    0.06549    0.10007    1.000
    N1516    N        0.40412    0.11243    0.06378    1.000
    Si1517   Si       0.27515    0.24968    0.07317    1.000
    Si1518   Si       0.26366    0.18055    0.09815    1.000
    N1519    N        0.28240    0.20676    0.06779    1.000
    N1520    N        0.34371    0.17913    0.08641    1.000
    N1521    N        0.28368    0.14174    0.09977    1.000
    Si1522   Si       0.32589    0.14754    0.11067    1.000
    Si1523   Si       0.48672    0.15615    0.09885    1.000
    N1524    N        0.39651    0.21692    0.08620    1.000
    Si1525   Si       0.43250    0.19891    0.06886    1.000
    Si1526   Si       0.37944    0.24849    0.05874    1.000
    N1527    N        0.44452    0.16817    0.09803    1.000
    N1528    N        0.46363    0.22616    0.06846    1.000
    Si1529   Si       0.36946    0.20016    0.11633    1.000
    N1530    N        0.29179    0.09053    0.14323    1.000
    N1531    N        0.35094    0.04469    0.15028    1.000
    Si1532   Si       0.32712    0.07155    0.12753    1.000
    Si1533   Si       0.45039    0.04460    0.13818    1.000
    N1534    N        0.41881    0.01674    0.13292    1.000
    Si1535   Si       0.37928    0.02696    0.12039    1.000
    N1536    N        0.33236    0.16777    0.15038    1.000
    N1537    N        0.27327    0.20167    0.13586    1.000
    N1538    N        0.34343    0.23171    0.12973    1.000
    Si1539   Si       0.31383    0.20833    0.15141    1.000
    Si1540   Si       0.24590    0.21656    0.16654    1.000
    N1541    N        0.26431    0.25740    0.16909    1.000
    Si1542   Si       0.47499    0.24595    0.16196    1.000
    N1543    N        0.39160    0.18218    0.14900    1.000
    Si1544   Si       0.43307    0.17631    0.13949    1.000
    N1545    N        0.46002    0.20972    0.14871    1.000
    N1546    N        0.44900    0.14256    0.16182    1.000
    N1547    N        0.30419    0.06120    0.20622    1.000
    Si1548   Si       0.33341    0.02902    0.18797    1.000
    Si1549   Si       0.28753    0.10007    0.18491    1.000
    N1550    N        0.24633    0.08315    0.19287    1.000
    Si1551   Si       0.26268    0.04381    0.20754    1.000
    N1552    N        0.30454    0.12096    0.22231    1.000
    N1553    N        0.35606    0.01505    0.22135    1.000
    N1554    N        0.24222    0.01893    0.18007    1.000
    Si1555   Si       0.44883    0.04816    0.21587    1.000
    N1556    N        0.44412    0.10849    0.22239    1.000
    Si1557   Si       0.42879    0.10780    0.18096    1.000
    N1558    N        0.38581    0.11680    0.17926    1.000
    N1559    N        0.43925    0.06664    0.17341    1.000
    N1560    N        0.25474    0.20089    0.20609    1.000
    Si1561   Si       0.27205    0.15631    0.21752    1.000
    Si1562   Si       0.35087    0.24485    0.20950    1.000
    N1563    N        0.31916    0.22305    0.19127    1.000
    Si1564   Si       0.29366    0.21922    0.22602    1.000
    N1565    N        0.26558    0.14087    0.17771    1.000
    N1566    N        0.36295    0.16812    0.21501    1.000
    N1567    N        0.43511    0.18170    0.22792    1.000
    N1568    N        0.45963    0.24712    0.20275    1.000
    Si1569   Si       0.46864    0.20648    0.21607    1.000
    N1570    N        0.39262    0.23518    0.21312    1.000
    Si1571   Si       0.49007    0.15053    0.17282    1.000
    Si1572   Si       0.36780    0.15641    0.17428    1.000
    N1573    N        0.28375    0.07570    0.27672    1.000
    Si1574   Si       0.31313    0.08157    0.24383    1.000
    N1575    N        0.35489    0.07952    0.25216    1.000
    N1576    N        0.25377    0.02673    0.24591    1.000
    Si1577   Si       0.24050    0.06124    0.26866    1.000
    Si1578   Si       0.37465    0.04210    0.24834    1.000
    Si1579   Si       0.37736    0.10844    0.27587    1.000
    N1580    N        0.48708    0.05863    0.23581    1.000
    N1581    N        0.37388    0.02204    0.28748    1.000
    N1582    N        0.46336    0.01156    0.28366    1.000
    N1583    N        0.41711    0.04055    0.24405    1.000
    N1584    N        0.34391    0.13719    0.28030    1.000
    N1585    N        0.33236    0.23957    0.24852    1.000
    Si1586   Si       0.33290    0.15102    0.24056    1.000
    N1587    N        0.30058    0.18072    0.24129    1.000
    Si1588   Si       0.35104    0.22716    0.28594    1.000
    Si1589   Si       0.25092    0.25550    0.27322    1.000
    N1590    N        0.23705    0.14993    0.24285    1.000
    N1591    N        0.45589    0.25659    0.28540    1.000
    Si1592   Si       0.39287    0.19559    0.23126    1.000
    Si1593   Si       0.44098    0.14431    0.24742    1.000
    N1594    N        0.38408    0.20270    0.27271    1.000
    N1595    N        0.48159    0.14255    0.26115    1.000
    N1596    N        0.40864    0.13781    0.27452    1.000
    Si1597   Si       0.29961    0.05238    0.30956    1.000
    N1598    N        0.33633    0.05435    0.33547    1.000
    N1599    N        0.27325    0.05271    0.34811    1.000
    N1600    N        0.30225    0.00967    0.29816    1.000
    Si1601   Si       0.37804    0.04913    0.32320    1.000
    N1602    N        0.38918    0.09046    0.31451    1.000
    Si1603   Si       0.39682    0.12029    0.34380    1.000
    N1604    N        0.44012    0.12789    0.34435    1.000
    N1605    N        0.28025    0.25230    0.30499    1.000
    Si1606   Si       0.29121    0.21383    0.32188    1.000
    Si1607   Si       0.34402    0.15987    0.31735    1.000
    N1608    N        0.26037    0.18185    0.32307    1.000
    N1609    N        0.32713    0.19770    0.30697    1.000
    N1610    N        0.31850    0.14606    0.34951    1.000
    N1611    N        0.40595    0.22763    0.33115    1.000
    Si1612   Si       0.44704    0.22857    0.31731    1.000
    N1613    N        0.45029    0.18558    0.30549    1.000
    Si1614   Si       0.47343    0.15704    0.33112    1.000
    Si1615   Si       0.40784    0.17500    0.29727    1.000
    N1616    N        0.38483    0.16458    0.33152    1.000
    Si1617   Si       0.31006    0.05179    0.37248    1.000
    N1618    N        0.31194    0.08871    0.39589    1.000
    Si1619   Si       0.33137    0.12727    0.38667    1.000
    N1620    N        0.31331    0.01211    0.39204    1.000
    N1621    N        0.37243    0.11592    0.37883    1.000
    Si1622   Si       0.45872    0.09639    0.36855    1.000
    N1623    N        0.42195    0.07584    0.38497    1.000
    Si1624   Si       0.40741    0.03035    0.39182    1.000
    Si1625   Si       0.48224    0.02477    0.37937    1.000
    N1626    N        0.48563    0.06075    0.35559    1.000
    N1627    N        0.46844    0.12309    0.40322    1.000
    N1628    N        0.40320    0.02480    0.34861    1.000
    N1629    N        0.44923    0.02417    0.40981    1.000
    Si1630   Si       0.38841    0.08811    0.40727    1.000
    N1631    N        0.25578    0.24122    0.40807    1.000
    Si1632   Si       0.28251    0.16655    0.35840    1.000
    Si1633   Si       0.29678    0.23645    0.39709    1.000
    N1634    N        0.29516    0.20957    0.36532    1.000
    N1635    N        0.26687    0.15068    0.39332    1.000
    N1636    N        0.47023    0.24321    0.35128    1.000
    N1637    N        0.48286    0.18054    0.36675    1.000
    N1638    N        0.36836    0.22098    0.38485    1.000
    Si1639   Si       0.39438    0.19662    0.35941    1.000
    Si1640   Si       0.45926    0.16390    0.39829    1.000
    N1641    N        0.42103    0.18377    0.39045    1.000
    N1642    N        0.43650    0.25388    0.40787    1.000
    Si1643   Si       0.28440    0.08705    0.43127    1.000
    N1644    N        0.28829    0.04679    0.44740    1.000
    N1645    N        0.24417    0.08975    0.41748    1.000
    N1646    N        0.30988    0.10882    0.46081    1.000
    Si1647   Si       0.34648    0.12813    0.45441    1.000
    N1648    N        0.38356    0.10739    0.44635    1.000
    Si1649   Si       0.44489    0.03595    0.45138    1.000
    N1650    N        0.44888    0.07944    0.45900    1.000
    Si1651   Si       0.48237    0.09929    0.43765    1.000
    N1652    N        0.37639    0.04857    0.42013    1.000
    Si1653   Si       0.37547    0.01230    0.44184    1.000
    N1654    N        0.48263    0.01987    0.46596    1.000
    Si1655   Si       0.35921    0.19681    0.41863    1.000
    N1656    N        0.34188    0.15505    0.41949    1.000
    Si1657   Si       0.25046    0.25173    0.44993    1.000
    N1658    N        0.32471    0.22061    0.42725    1.000
    Si1659   Si       0.42957    0.21400    0.42351    1.000
    N1660    N        0.39194    0.20223    0.44818    1.000
    N1661    N        0.46323    0.18803    0.43481    1.000
    Si1662   Si       0.47100    0.16313    0.46924    1.000
    Si1663   Si       0.29439    0.09825    0.49936    1.000
    N1664    N        0.25400    0.08111    0.49483    1.000
    N1665    N        0.26138    0.02484    0.51317    1.000
    Si1666   Si       0.25498    0.04327    0.47325    1.000
    N1667    N        0.40382    0.09417    0.51434    1.000
    Si1668   Si       0.41674    0.10569    0.47450    1.000
    N1669    N        0.41023    0.01676    0.47119    1.000
    Si1670   Si       0.31657    0.16957    0.50627    1.000
    N1671    N        0.35089    0.23146    0.49025    1.000
    N1672    N        0.35276    0.15617    0.48759    1.000
    N1673    N        0.29199    0.19351    0.48082    1.000
    Si1674   Si       0.25298    0.20377    0.49658    1.000
    N1675    N        0.28689    0.13823    0.51721    1.000
    Si1676   Si       0.31356    0.22934    0.46860    1.000
    N1677    N        0.48156    0.19650    0.49752    1.000
    N1678    N        0.43036    0.14735    0.47719    1.000
    Si1679   Si       0.39372    0.17292    0.48022    1.000
    Si1680   Si       0.44364    0.21541    0.50558    1.000
    N1681    N        0.40799    0.19329    0.51615    1.000
    Si1682   Si       0.38673    0.24552    0.47081    1.000
    N1683    N        0.42951    0.24762    0.47949    1.000
    N1684    N        0.30270    0.03732    0.57414    1.000
    Si1685   Si       0.33346    0.07171    0.56542    1.000
    Si1686   Si       0.30159    0.03118    0.53034    1.000
    N1687    N        0.31614    0.07339    0.52611    1.000
    N1688    N        0.37055    0.04910    0.56611    1.000
    Si1689   Si       0.41828    0.11135    0.55105    1.000
    N1690    N        0.46015    0.11988    0.54486    1.000
    N1691    N        0.25939    0.16853    0.57418    1.000
    N1692    N        0.32433    0.19623    0.54169    1.000
    Si1693   Si       0.25019    0.14531    0.53924    1.000
    Si1694   Si       0.35058    0.23266    0.53392    1.000
    Si1695   Si       0.28577    0.20260    0.56432    1.000
    N1696    N        0.26453    0.22627    0.53335    1.000
    Si1697   Si       0.46811    0.21565    0.57652    1.000
    N1698    N        0.37453    0.22296    0.57010    1.000
    Si1699   Si       0.40438    0.19030    0.55960    1.000
    N1700    N        0.45002    0.23642    0.54278    1.000
    N1701    N        0.39529    0.14796    0.56591    1.000
    Si1702   Si       0.29342    0.02778    0.61491    1.000
    N1703    N        0.30376    0.06390    0.63686    1.000
    N1704    N        0.27509    0.12732    0.63020    1.000
    N1705    N        0.34095    0.10497    0.59075    1.000
    Si1706   Si       0.31530    0.13069    0.61745    1.000
    Si1707   Si       0.39990    0.05357    0.59970    1.000
    N1708    N        0.42796    0.01948    0.60422    1.000
    Si1709   Si       0.46362    0.10191    0.59637    1.000
    Si1710   Si       0.47124    0.01168    0.60778    1.000
    N1711    N        0.37511    0.05703    0.63585    1.000
    N1712    N        0.47860    0.08239    0.63584    1.000
    N1713    N        0.42368    0.08654    0.58579    1.000
    Si1714   Si       0.24319    0.14942    0.61000    1.000
    N1715    N        0.33483    0.16573    0.60376    1.000
    N1716    N        0.30157    0.22387    0.59743    1.000
    Si1717   Si       0.34220    0.20662    0.59724    1.000
    N1718    N        0.36469    0.22343    0.63048    1.000
    Si1719   Si       0.28290    0.25817    0.61754    1.000
    Si1720   Si       0.39042    0.25001    0.60714    1.000
    N1721    N        0.39175    0.15341    0.63603    1.000
    Si1722   Si       0.36992    0.13758    0.59926    1.000
    N1723    N        0.42557    0.25228    0.63813    1.000
    Si1724   Si       0.42931    0.17437    0.62815    1.000
    N1725    N        0.48367    0.24835    0.60138    1.000
    N1726    N        0.45630    0.14074    0.61846    1.000
    N1727    N        0.43218    0.19830    0.59426    1.000
    N1728    N        0.34404    0.05757    0.69009    1.000
    Si1729   Si       0.27366    0.09001    0.65388    1.000
    N1730    N        0.28559    0.09863    0.69584    1.000
    N1731    N        0.26460    0.01576    0.68418    1.000
    N1732    N        0.33827    0.12081    0.65350    1.000
    Si1733   Si       0.34207    0.07831    0.65159    1.000
    Si1734   Si       0.37705    0.03472    0.67302    1.000
    Si1735   Si       0.46514    0.11909    0.65555    1.000
    N1736    N        0.43291    0.11131    0.68185    1.000
    N1737    N        0.47896    0.01307    0.64925    1.000
    N1738    N        0.41120    0.04087    0.69840    1.000
    N1739    N        0.33949    0.19041    0.68113    1.000
    N1740    N        0.27463    0.17943    0.69208    1.000
    Si1741   Si       0.24550    0.20287    0.66897    1.000
    N1742    N        0.25776    0.24087    0.64963    1.000
    Si1743   Si       0.36065    0.15467    0.66847    1.000
    Si1744   Si       0.35707    0.22902    0.67219    1.000
    N1745    N        0.44418    0.19070    0.66660    1.000
    Si1746   Si       0.43086    0.23195    0.67610    1.000
    N1747    N        0.39326    0.23605    0.69764    1.000
    Si1748   Si       0.47312    0.17770    0.69612    1.000
    N1749    N        0.46793    0.25009    0.68964    1.000
    Si1750   Si       0.25418    0.01784    0.72604    1.000
    Si1751   Si       0.31068    0.07034    0.71538    1.000
    N1752    N        0.33221    0.09127    0.74822    1.000
    N1753    N        0.29300    0.03789    0.73982    1.000
    Si1754   Si       0.34939    0.12990    0.74186    1.000
    N1755    N        0.41647    0.09823    0.74046    1.000
    Si1756   Si       0.43434    0.07533    0.70777    1.000
    Si1757   Si       0.48439    0.05455    0.74593    1.000
    N1758    N        0.44542    0.03658    0.75725    1.000
    Si1759   Si       0.42680    0.01162    0.72803    1.000
    N1760    N        0.47550    0.06240    0.70303    1.000
    Si1761   Si       0.41610    0.13383    0.71584    1.000
    N1762    N        0.31249    0.15337    0.73665    1.000
    N1763    N        0.31758    0.23127    0.72969    1.000
    Si1764   Si       0.27686    0.13951    0.71207    1.000
    Si1765   Si       0.31009    0.19224    0.71298    1.000
    N1766    N        0.37391    0.14242    0.70950    1.000
    N1767    N        0.44584    0.16222    0.72797    1.000
    Si1768   Si       0.38548    0.25717    0.73636    1.000
    Si1769   Si       0.32055    0.06497    0.78279    1.000
    N1770    N        0.34177    0.02198    0.78321    1.000
    N1771    N        0.28151    0.07301    0.80235    1.000
    Si1772   Si       0.26022    0.10956    0.80759    1.000
    N1773    N        0.34659    0.07638    0.81627    1.000
    N1774    N        0.41624    0.07446    0.80810    1.000
    Si1775   Si       0.43757    0.09669    0.77768    1.000
    N1776    N        0.48075    0.09364    0.76395    1.000
    Si1777   Si       0.38079    0.04912    0.81657    1.000
    N1778    N        0.39692    0.00790    0.81699    1.000
    N1779    N        0.27087    0.14771    0.78960    1.000
    N1780    N        0.31703    0.20059    0.79449    1.000
    Si1781   Si       0.31559    0.15603    0.79143    1.000
    Si1782   Si       0.33226    0.23159    0.76935    1.000
    Si1783   Si       0.25123    0.17981    0.80910    1.000
    N1784    N        0.35890    0.14252    0.78207    1.000
    N1785    N        0.44259    0.20520    0.79339    1.000
    Si1786   Si       0.39155    0.15026    0.81021    1.000
    Si1787   Si       0.40346    0.22233    0.79916    1.000
    N1788    N        0.43082    0.13726    0.79450    1.000
    Si1789   Si       0.45356    0.16910    0.77241    1.000
    N1790    N        0.37547    0.22685    0.76577    1.000
    Si1791   Si       0.34700    0.10931    0.84460    1.000
    Si1792   Si       0.26743    0.04432    0.83213    1.000
    N1793    N        0.25603    0.12442    0.85099    1.000
    N1794    N        0.46567    0.10441    0.84648    1.000
    N1795    N        0.39033    0.05239    0.86116    1.000
    N1796    N        0.38771    0.12354    0.84706    1.000
    Si1797   Si       0.41707    0.08832    0.84975    1.000
    N1798    N        0.45360    0.02424    0.86102    1.000
    Si1799   Si       0.41092    0.01389    0.85846    1.000
    Si1800   Si       0.49102    0.01271    0.84146    1.000
    N1801    N        0.27631    0.25883    0.84333    1.000
    N1802    N        0.31980    0.14075    0.83316    1.000
    Si1803   Si       0.28893    0.15262    0.86216    1.000
    N1804    N        0.27658    0.19136    0.84477    1.000
    N1805    N        0.33772    0.22968    0.85984    1.000
    Si1806   Si       0.30492    0.22616    0.82999    1.000
    N1807    N        0.40359    0.25709    0.82391    1.000
    N1808    N        0.46022    0.23431    0.85996    1.000
    Si1809   Si       0.47326    0.21056    0.82432    1.000
    Si1810   Si       0.37387    0.20328    0.86430    1.000
    N1811    N        0.38673    0.19171    0.82434    1.000
    Si1812   Si       0.46546    0.14628    0.86489    1.000
    N1813    N        0.48777    0.17445    0.84232    1.000
    N1814    N        0.43022    0.16780    0.87663    1.000
    Si1815   Si       0.29575    0.03105    0.90932    1.000
    N1816    N        0.33289    0.02292    0.89119    1.000
    N1817    N        0.34102    0.09952    0.88472    1.000
    Si1818   Si       0.35871    0.06014    0.89097    1.000
    N1819    N        0.27363    0.04791    0.87688    1.000
    N1820    N        0.37850    0.05658    0.92842    1.000
    N1821    N        0.42592    0.09982    0.89361    1.000
    Si1822   Si       0.47245    0.01919    0.89880    1.000
    N1823    N        0.47261    0.05794    0.91974    1.000
    Si1824   Si       0.47179    0.09348    0.89327    1.000
    N1825    N        0.38166    0.12353    0.92954    1.000
    Si1826   Si       0.40841    0.08811    0.93081    1.000
    Si1827   Si       0.34109    0.13392    0.91371    1.000
    N1828    N        0.29892    0.14758    0.90412    1.000
    Si1829   Si       0.26989    0.17052    0.92975    1.000
    N1830    N        0.35425    0.23510    0.92744    1.000
    Si1831   Si       0.33463    0.19569    0.92429    1.000
    N1832    N        0.29351    0.20939    0.92747    1.000
    N1833    N        0.36050    0.17087    0.89338    1.000
    Si1834   Si       0.29453    0.25222    0.94038    1.000
    N1835    N        0.46794    0.20519    0.92422    1.000
    Si1836   Si       0.39641    0.23125    0.93619    1.000
    Si1837   Si       0.47483    0.16486    0.93730    1.000
    Si1838   Si       0.44421    0.20638    0.88879    1.000
    N1839    N        0.48138    0.13588    0.90295    1.000
    N1840    N        0.40467    0.22606    0.88929    1.000
    Si1841   Si       0.39926    0.13927    0.88965    1.000
    Si1842   Si       0.29049    0.06882    0.98159    1.000
    Si1843   Si       0.35151    0.04187    0.96037    1.000
    N1844    N        0.31074    0.04942    0.94748    1.000
    N1845    N        0.24842    0.07610    0.97881    1.000
    N1846    N        0.31542    0.10594    0.98628    1.000
    N1847    N        0.42912    0.08248    0.96847    1.000
    Si1848   Si       0.45503    0.11481    0.97614    1.000
    N1849    N        0.42497    0.01450    0.98473    1.000
    N1850    N        0.37073    0.06196    0.99450    1.000
    N1851    N        0.48840    0.03452    0.98375    1.000
    Si1852   Si       0.41282    0.05436    0.99596    1.000
    N1853    N        0.33734    0.16304    0.95442    1.000
    N1854    N        0.26636    0.15554    0.97033    1.000
    Si1855   Si       0.30796    0.15009    0.98508    1.000
    N1856    N        0.39394    0.19900    0.96649    1.000
    N1857    N        0.45717    0.21355    0.99166    1.000
    Si1858   Si       0.46842    0.23417    0.95558    1.000
    Si1859   Si       0.38775    0.15459    0.96112    1.000
    N1860    N        0.42824    0.25589    0.94867    1.000
    N1861    N        0.43648    0.14692    0.95278    1.000
    N1862    N        0.33996    0.30982    0.02410    1.000
    Si1863   Si       0.25615    0.31627    0.03993    1.000
    N1864    N        0.28062    0.27567    0.03963    1.000
    Si1865   Si       0.31960    0.27136    0.02182    1.000
    N1866    N        0.27674    0.33490    0.00537    1.000
    N1867    N        0.32220    0.37732    0.02364    1.000
    Si1868   Si       0.31938    0.34040    0.00140    1.000
    Si1869   Si       0.43981    0.27612    0.02496    1.000
    Si1870   Si       0.40733    0.34406    0.01568    1.000
    Si1871   Si       0.47340    0.37631    0.03125    1.000
    N1872    N        0.47812    0.27773    0.00436    1.000
    N1873    N        0.43481    0.37917    0.01401    1.000
    N1874    N        0.42004    0.30755    0.99781    1.000
    N1875    N        0.39952    0.33606    0.05687    1.000
    N1876    N        0.30604    0.50956    0.03980    1.000
    Si1877   Si       0.32136    0.48706    0.00770    1.000
    Si1878   Si       0.33770    0.41718    0.01252    1.000
    N1879    N        0.31081    0.44667    0.02589    1.000
    N1880    N        0.36389    0.48567    0.01070    1.000
    N1881    N        0.24653    0.47158    0.05437    1.000
    Si1882   Si       0.26131    0.50877    0.03526    1.000
    N1883    N        0.37883    0.42473    0.02601    1.000
    N1884    N        0.48236    0.41893    0.03396    1.000
    N1885    N        0.42722    0.48402    0.00964    1.000
    Si1886   Si       0.39418    0.46710    0.03795    1.000
    N1887    N        0.33905    0.35118    0.08299    1.000
    N1888    N        0.27468    0.33742    0.07349    1.000
    Si1889   Si       0.30503    0.37025    0.06285    1.000
    N1890    N        0.29850    0.27130    0.10663    1.000
    Si1891   Si       0.36061    0.32024    0.06110    1.000
    N1892    N        0.36633    0.28281    0.08319    1.000
    Si1893   Si       0.26369    0.34501    0.11567    1.000
    Si1894   Si       0.46820    0.26397    0.09192    1.000
    N1895    N        0.44865    0.29271    0.06607    1.000
    Si1896   Si       0.43496    0.33209    0.08146    1.000
    N1897    N        0.46771    0.35949    0.07243    1.000
    Si1898   Si       0.33003    0.49515    0.07945    1.000
    N1899    N        0.30297    0.46445    0.09402    1.000
    N1900    N        0.27410    0.40088    0.06541    1.000
    Si1901   Si       0.28209    0.44245    0.06047    1.000
    N1902    N        0.48081    0.43081    0.10652    1.000
    Si1903   Si       0.41062    0.48367    0.09619    1.000
    Si1904   Si       0.46704    0.44335    0.06754    1.000
    N1905    N        0.48734    0.48125    0.06172    1.000
    N1906    N        0.42403    0.45273    0.06795    1.000
    N1907    N        0.37287    0.48736    0.07659    1.000
    N1908    N        0.34757    0.31045    0.14290    1.000
    N1909    N        0.29908    0.36174    0.13580    1.000
    Si1910   Si       0.26181    0.27548    0.12969    1.000
    Si1911   Si       0.33918    0.34861    0.12521    1.000
    N1912    N        0.24410    0.31305    0.13684    1.000
    Si1913   Si       0.34150    0.27505    0.11827    1.000
    N1914    N        0.36706    0.37901    0.13917    1.000
    Si1915   Si       0.47248    0.36824    0.16209    1.000
    Si1916   Si       0.40595    0.36462    0.14999    1.000
    N1917    N        0.45835    0.27562    0.13391    1.000
    Si1918   Si       0.43427    0.30743    0.15186    1.000
    N1919    N        0.42154    0.33588    0.12314    1.000
    N1920    N        0.24130    0.45983    0.12359    1.000
    Si1921   Si       0.30119    0.38793    0.17025    1.000
    N1922    N        0.30497    0.42956    0.15576    1.000
    Si1923   Si       0.28500    0.46309    0.13362    1.000
    N1924    N        0.28107    0.50412    0.15506    1.000
    N1925    N        0.47318    0.45359    0.17407    1.000
    Si1926   Si       0.45163    0.43631    0.14167    1.000
    N1927    N        0.41661    0.46272    0.13374    1.000
    Si1928   Si       0.38761    0.48379    0.15988    1.000
    N1929    N        0.43954    0.39470    0.14924    1.000
    N1930    N        0.34862    0.28762    0.20749    1.000
    Si1931   Si       0.25845    0.28183    0.20470    1.000
    N1932    N        0.28622    0.31303    0.21347    1.000
    Si1933   Si       0.29033    0.35431    0.22170    1.000
    N1934    N        0.32647    0.37127    0.20338    1.000
    N1935    N        0.26686    0.37776    0.19461    1.000
    N1936    N        0.39319    0.35178    0.19512    1.000
    Si1937   Si       0.43135    0.33895    0.21468    1.000
    Si1938   Si       0.42145    0.26711    0.21154    1.000
    Si1939   Si       0.36925    0.31278    0.18133    1.000
    N1940    N        0.45521    0.33205    0.17895    1.000
    N1941    N        0.40490    0.28953    0.17708    1.000
    Si1942   Si       0.36754    0.38336    0.21284    1.000
    N1943    N        0.29929    0.45970    0.21867    1.000
    Si1944   Si       0.32858    0.44882    0.18760    1.000
    Si1945   Si       0.25571    0.45443    0.22525    1.000
    N1946    N        0.34612    0.48408    0.16997    1.000
    Si1947   Si       0.39043    0.45526    0.22838    1.000
    N1948    N        0.36476    0.42778    0.20503    1.000
    N1949    N        0.47286    0.49094    0.23081    1.000
    Si1950   Si       0.45144    0.48836    0.19240    1.000
    N1951    N        0.40941    0.48059    0.19747    1.000
    N1952    N        0.28513    0.36409    0.26324    1.000
    N1953    N        0.31758    0.30630    0.27358    1.000
    Si1954   Si       0.31346    0.28716    0.23411    1.000
    N1955    N        0.27575    0.25765    0.23599    1.000
    Si1956   Si       0.43630    0.29490    0.28100    1.000
    N1957    N        0.47067    0.32212    0.28448    1.000
    N1958    N        0.42721    0.30187    0.23776    1.000
    N1959    N        0.45138    0.37529    0.23377    1.000
    N1960    N        0.29848    0.49729    0.27453    1.000
    N1961    N        0.25183    0.42642    0.25931    1.000
    Si1962   Si       0.28381    0.40507    0.27873    1.000
    N1963    N        0.32210    0.42405    0.27000    1.000
    Si1964   Si       0.31996    0.46544    0.25453    1.000
    Si1965   Si       0.35615    0.40192    0.28848    1.000
    N1966    N        0.36081    0.47658    0.25174    1.000
    N1967    N        0.38232    0.38777    0.25803    1.000
    Si1968   Si       0.44448    0.47981    0.26288    1.000
    N1969    N        0.42308    0.44248    0.25300    1.000
    Si1970   Si       0.42502    0.40047    0.26248    1.000
    Si1971   Si       0.37957    0.50754    0.27647    1.000
    N1972    N        0.30139    0.31373    0.33248    1.000
    N1973    N        0.33454    0.37012    0.31064    1.000
    Si1974   Si       0.31268    0.27907    0.30950    1.000
    Si1975   Si       0.30640    0.34108    0.29459    1.000
    N1976    N        0.35016    0.25974    0.31386    1.000
    N1977    N        0.40794    0.29976    0.31445    1.000
    Si1978   Si       0.47368    0.36043    0.30204    1.000
    Si1979   Si       0.38698    0.26576    0.33333    1.000
    N1980    N        0.38891    0.35769    0.34457    1.000
    N1981    N        0.43932    0.38700    0.30173    1.000
    N1982    N        0.25767    0.50169    0.32213    1.000
    N1983    N        0.32579    0.46145    0.32481    1.000
    N1984    N        0.27522    0.41086    0.31943    1.000
    Si1985   Si       0.29987    0.49641    0.31919    1.000
    Si1986   Si       0.30155    0.43321    0.34594    1.000
    N1987    N        0.47303    0.46983    0.29580    1.000
    N1988    N        0.38634    0.49267    0.31718    1.000
    Si1989   Si       0.36808    0.45752    0.33758    1.000
    Si1990   Si       0.48156    0.48456    0.33492    1.000
    Si1991   Si       0.41359    0.39264    0.33772    1.000
    N1992    N        0.38151    0.41821    0.32063    1.000
    N1993    N        0.33388    0.34562    0.38458    1.000
    N1994    N        0.26680    0.32162    0.39317    1.000
    Si1995   Si       0.30505    0.31394    0.37579    1.000
    N1996    N        0.31915    0.27323    0.38645    1.000
    Si1997   Si       0.35911    0.26240    0.39713    1.000
    Si1998   Si       0.34696    0.37100    0.35318    1.000
    Si1999   Si       0.46591    0.27251    0.38241    1.000
    N2000    N        0.38879    0.28373    0.37340    1.000
    N2001    N        0.44710    0.31419    0.37363    1.000
    Si2002   Si       0.46975    0.35323    0.37497    1.000
    Si2003   Si       0.40795    0.32016    0.35373    1.000
    N2004    N        0.33022    0.40915    0.36677    1.000
    N2005    N        0.27245    0.45454    0.37136    1.000
    Si2006   Si       0.35030    0.42687    0.40095    1.000
    N2007    N        0.43897    0.38787    0.37194    1.000
    N2008    N        0.44502    0.49579    0.35621    1.000
    N2009    N        0.37152    0.46222    0.38170    1.000
    Si2010   Si       0.42195    0.40442    0.40895    1.000
    N2011    N        0.37894    0.39446    0.40739    1.000
    N2012    N        0.33220    0.36792    0.45110    1.000
    Si2013   Si       0.35798    0.35827    0.41728    1.000
    N2014    N        0.27374    0.33771    0.46373    1.000
    Si2015   Si       0.28757    0.37628    0.45189    1.000
    Si2016   Si       0.24694    0.32369    0.43093    1.000
    N2017    N        0.43880    0.30780    0.44923    1.000
    N2018    N        0.39163    0.33430    0.41942    1.000
    Si2019   Si       0.41777    0.34715    0.45285    1.000
    N2020    N        0.37882    0.27112    0.43692    1.000
    Si2021   Si       0.41327    0.29075    0.41690    1.000
    N2022    N        0.44317    0.38261    0.43997    1.000
    N2023    N        0.31940    0.44369    0.42458    1.000
    N2024    N        0.24865    0.46293    0.43854    1.000
    Si2025   Si       0.33059    0.46578    0.45994    1.000
    N2026    N        0.26473    0.39924    0.42121    1.000
    Si2027   Si       0.27804    0.44198    0.41297    1.000
    N2028    N        0.30222    0.49951    0.46128    1.000
    Si2029   Si       0.24971    0.50596    0.42077    1.000
    N2030    N        0.47975    0.49627    0.41831    1.000
    Si2031   Si       0.48509    0.38211    0.43116    1.000
    N2032    N        0.37043    0.48436    0.45574    1.000
    Si2033   Si       0.39320    0.47848    0.41889    1.000
    N2034    N        0.42098    0.44453    0.42749    1.000
    N2035    N        0.33042    0.31724    0.49933    1.000
    Si2036   Si       0.29026    0.30564    0.48970    1.000
    Si2037   Si       0.35035    0.35593    0.48920    1.000
    N2038    N        0.26332    0.29989    0.52329    1.000
    N2039    N        0.33646    0.38119    0.52427    1.000
    N2040    N        0.28913    0.26571    0.46779    1.000
    N2041    N        0.38438    0.27099    0.52529    1.000
    Si2042   Si       0.45222    0.28578    0.48074    1.000
    N2043    N        0.39235    0.35967    0.48649    1.000
    N2044    N        0.45511    0.37585    0.51707    1.000
    N2045    N        0.44451    0.30549    0.51771    1.000
    Si2046   Si       0.30776    0.41211    0.51567    1.000
    N2047    N        0.33099    0.44394    0.49775    1.000
    N2048    N        0.27689    0.40264    0.48653    1.000
    N2049    N        0.25450    0.46678    0.50824    1.000
    Si2050   Si       0.26735    0.50287    0.48672    1.000
    Si2051   Si       0.24955    0.43553    0.47804    1.000
    N2052    N        0.40156    0.42661    0.50194    1.000
    Si2053   Si       0.46982    0.47889    0.50705    1.000
    Si2054   Si       0.48530    0.40216    0.49942    1.000
    Si2055   Si       0.42805    0.44634    0.47252    1.000
    Si2056   Si       0.36828    0.44737    0.52002    1.000
    Si2057   Si       0.39459    0.50351    0.48515    1.000
    N2058    N        0.43415    0.48777    0.48618    1.000
    N2059    N        0.38114    0.48932    0.52502    1.000
    Si2060   Si       0.41183    0.38637    0.51622    1.000
    N2061    N        0.46935    0.43932    0.48655    1.000
    Si2062   Si       0.35423    0.36917    0.56158    1.000
    Si2063   Si       0.27805    0.26592    0.54575    1.000
    N2064    N        0.32286    0.26691    0.54454    1.000
    N2065    N        0.25664    0.26991    0.58393    1.000
    N2066    N        0.36478    0.32722    0.55939    1.000
    Si2067   Si       0.35053    0.29760    0.53098    1.000
    N2068    N        0.46240    0.34532    0.57363    1.000
    Si2069   Si       0.42509    0.27212    0.53991    1.000
    Si2070   Si       0.47241    0.33846    0.53131    1.000
    N2071    N        0.42077    0.28251    0.58264    1.000
    N2072    N        0.29393    0.49279    0.56061    1.000
    N2073    N        0.35171    0.43939    0.56039    1.000
    N2074    N        0.28699    0.42565    0.54988    1.000
    Si2075   Si       0.26290    0.46173    0.55160    1.000
    Si2076   Si       0.31671    0.42239    0.58157    1.000
    Si2077   Si       0.38612    0.42379    0.58234    1.000
    N2078    N        0.39793    0.38785    0.55967    1.000
    N2079    N        0.47521    0.47245    0.54982    1.000
    N2080    N        0.41310    0.45522    0.58270    1.000
    Si2081   Si       0.39324    0.49324    0.56630    1.000
    Si2082   Si       0.44957    0.48035    0.58345    1.000
    Si2083   Si       0.31433    0.37011    0.63470    1.000
    N2084    N        0.29812    0.29442    0.63411    1.000
    N2085    N        0.36794    0.28646    0.61393    1.000
    N2086    N        0.33029    0.38340    0.59616    1.000
    Si2087   Si       0.34051    0.30003    0.64420    1.000
    Si2088   Si       0.45071    0.27604    0.61351    1.000
    N2089    N        0.40672    0.34860    0.61296    1.000
    N2090    N        0.46469    0.30761    0.63576    1.000
    Si2091   Si       0.39210    0.31426    0.59001    1.000
    Si2092   Si       0.38235    0.37166    0.64220    1.000
    Si2093   Si       0.43098    0.37138    0.58709    1.000
    Si2094   Si       0.48752    0.33109    0.60707    1.000
    N2095    N        0.25433    0.49018    0.63344    1.000
    N2096    N        0.30463    0.45085    0.61142    1.000
    Si2097   Si       0.31914    0.48720    0.59473    1.000
    N2098    N        0.35826    0.50662    0.58760    1.000
    Si2099   Si       0.27794    0.45280    0.64612    1.000
    N2100    N        0.45631    0.47245    0.62593    1.000
    N2101    N        0.38578    0.41361    0.62414    1.000
    Si2102   Si       0.42652    0.43651    0.63015    1.000
    N2103    N        0.45043    0.40361    0.61109    1.000
    Si2104   Si       0.27444    0.31452    0.66706    1.000
    N2105    N        0.33910    0.26881    0.67356    1.000
    N2106    N        0.27533    0.35611    0.65258    1.000
    N2107    N        0.34713    0.34446    0.64681    1.000
    N2108    N        0.29196    0.30739    0.70743    1.000
    Si2109   Si       0.46868    0.29132    0.67742    1.000
    N2110    N        0.39670    0.37786    0.68273    1.000
    N2111    N        0.46205    0.37082    0.69668    1.000
    Si2112   Si       0.42176    0.34979    0.70529    1.000
    Si2113   Si       0.26583    0.39114    0.67748    1.000
    N2114    N        0.30266    0.46859    0.67933    1.000
    Si2115   Si       0.33419    0.43605    0.68064    1.000
    N2116    N        0.24705    0.43032    0.66621    1.000
    N2117    N        0.30906    0.40811    0.65966    1.000
    Si2118   Si       0.32236    0.50788    0.66811    1.000
    Si2119   Si       0.27015    0.49037    0.70275    1.000
    Si2120   Si       0.39263    0.41970    0.69642    1.000
    N2121    N        0.37212    0.45718    0.67903    1.000
    N2122    N        0.43417    0.43796    0.67528    1.000
    Si2123   Si       0.39016    0.49421    0.69240    1.000
    Si2124   Si       0.46647    0.41267    0.69067    1.000
    Si2125   Si       0.45864    0.47806    0.66867    1.000
    N2126    N        0.32988    0.35065    0.73992    1.000
    Si2127   Si       0.28733    0.33725    0.73629    1.000
    Si2128   Si       0.32035    0.27454    0.71313    1.000
    N2129    N        0.35367    0.28805    0.73440    1.000
    Si2130   Si       0.23608    0.38081    0.73599    1.000
    N2131    N        0.28194    0.38056    0.71801    1.000
    Si2132   Si       0.36351    0.32775    0.74962    1.000
    Si2133   Si       0.45022    0.29360    0.74869    1.000
    N2134    N        0.40360    0.34792    0.74455    1.000
    N2135    N        0.44453    0.31159    0.70842    1.000
    N2136    N        0.48301    0.26278    0.75083    1.000
    N2137    N        0.34882    0.41121    0.71264    1.000
    N2138    N        0.28010    0.47127    0.74028    1.000
    Si2139   Si       0.31989    0.39287    0.73849    1.000
    N2140    N        0.40962    0.41924    0.73850    1.000
    N2141    N        0.39283    0.49186    0.73657    1.000
    N2142    N        0.48369    0.42959    0.72636    1.000
    Si2143   Si       0.31942    0.30531    0.80328    1.000
    N2144    N        0.28791    0.32060    0.77917    1.000
    N2145    N        0.35830    0.32063    0.79413    1.000
    Si2146   Si       0.24305    0.32404    0.78254    1.000
    N2147    N        0.32416    0.26228    0.79785    1.000
    Si2148   Si       0.47963    0.34974    0.78868    1.000
    N2149    N        0.46511    0.30773    0.78998    1.000
    Si2150   Si       0.39300    0.29115    0.79938    1.000
    N2151    N        0.40984    0.28268    0.76071    1.000
    N2152    N        0.40991    0.32263    0.82493    1.000
    Si2153   Si       0.37893    0.35107    0.81857    1.000
    Si2154   Si       0.29926    0.41958    0.81385    1.000
    N2155    N        0.32431    0.41095    0.77619    1.000
    N2156    N        0.26965    0.45045    0.80799    1.000
    Si2157   Si       0.25327    0.45669    0.76822    1.000
    Si2158   Si       0.36126    0.42074    0.79836    1.000
    Si2159   Si       0.46173    0.48312    0.81253    1.000
    N2160    N        0.38866    0.38716    0.79857    1.000
    Si2161   Si       0.47712    0.42391    0.76833    1.000
    N2162    N        0.45138    0.46028    0.77723    1.000
    Si2163   Si       0.41458    0.38475    0.76261    1.000
    N2164    N        0.38386    0.45606    0.79093    1.000
    N2165    N        0.45660    0.38557    0.77529    1.000
    Si2166   Si       0.41291    0.45816    0.75677    1.000
    N2167    N        0.30990    0.31728    0.84442    1.000
    Si2168   Si       0.31375    0.36088    0.85577    1.000
    Si2169   Si       0.28613    0.28968    0.87082    1.000
    N2170    N        0.35816    0.36477    0.85521    1.000
    N2171    N        0.24803    0.31294    0.87593    1.000
    Si2172   Si       0.23832    0.38306    0.83694    1.000
    N2173    N        0.28183    0.38382    0.83518    1.000
    Si2174   Si       0.41570    0.26178    0.86577    1.000
    N2175    N        0.46907    0.35067    0.83326    1.000
    Si2176   Si       0.45126    0.31100    0.83395    1.000
    Si2177   Si       0.46062    0.37232    0.86988    1.000
    N2178    N        0.43836    0.29797    0.87788    1.000
    N2179    N        0.37634    0.28454    0.87933    1.000
    Si2180   Si       0.24409    0.45696    0.84719    1.000
    Si2181   Si       0.35307    0.44999    0.87029    1.000
    N2182    N        0.33701    0.42838    0.83535    1.000
    N2183    N        0.28373    0.47214    0.86740    1.000
    Si2184   Si       0.43121    0.44830    0.87208    1.000
    N2185    N        0.39159    0.42972    0.87816    1.000
    N2186    N        0.42746    0.47691    0.83976    1.000
    N2187    N        0.36301    0.48803    0.85115    1.000
    N2188    N        0.46146    0.41545    0.86626    1.000
    Si2189   Si       0.39189    0.48672    0.82017    1.000
    N2190    N        0.29630    0.36177    0.89634    1.000
    N2191    N        0.30649    0.27420    0.90484    1.000
    Si2192   Si       0.25481    0.34871    0.89746    1.000
    Si2193   Si       0.34495    0.25858    0.89193    1.000
    Si2194   Si       0.29237    0.37122    0.94128    1.000
    Si2195   Si       0.47147    0.31254    0.90480    1.000
    Si2196   Si       0.40132    0.31898    0.89140    1.000
    N2197    N        0.38896    0.31647    0.93267    1.000
    N2198    N        0.42004    0.35985    0.88316    1.000
    N2199    N        0.33896    0.44772    0.91204    1.000
    Si2200   Si       0.48026    0.46163    0.92769    1.000
    Si2201   Si       0.41937    0.50683    0.91364    1.000
    N2202    N        0.36960    0.38169    0.92098    1.000
    N2203    N        0.44330    0.47219    0.90494    1.000
    Si2204   Si       0.38589    0.38649    0.88067    1.000
    Si2205   Si       0.36844    0.42364    0.93549    1.000
    N2206    N        0.32407    0.34698    0.95883    1.000
    Si2207   Si       0.24362    0.32886    0.97769    1.000
    N2208    N        0.25064    0.25751    0.95096    1.000
    N2209    N        0.30427    0.26371    0.98098    1.000
    Si2210   Si       0.26064    0.26167    0.99692    1.000
    N2211    N        0.25495    0.34803    0.94150    1.000
    Si2212   Si       0.36590    0.35075    0.94777    1.000
    Si2213   Si       0.41893    0.29604    0.95675    1.000
    N2214    N        0.38214    0.36430    0.98709    1.000
    Si2215   Si       0.48050    0.31357    0.97992    1.000
    N2216    N        0.45375    0.31941    0.94366    1.000
    Si2217   Si       0.24178    0.42586    0.96504    1.000
    N2218    N        0.27961    0.41601    0.94467    1.000
    Si2219   Si       0.30966    0.44650    0.94570    1.000
    N2220    N        0.33794    0.42180    0.96938    1.000
    N2221    N        0.30418    0.48305    0.96726    1.000
    Si2222   Si       0.26653    0.50297    0.95937    1.000
    N2223    N        0.40362    0.42840    0.96191    1.000
    N2224    N        0.46643    0.45111    0.96772    1.000
    Si2225   Si       0.42621    0.46385    0.97199    1.000
    N2226    N        0.40450    0.49753    0.95344    1.000
    Si2227   Si       0.40325    0.40276    0.99673    1.000
    N2228    N        0.33078    0.57091    0.03356    1.000
    Si2229   Si       0.44970    0.52418    0.00709    1.000
    N2230    N        0.44411    0.60524    0.01970    1.000
    Si2231   Si       0.40292    0.58529    0.01817    1.000
    N2232    N        0.46336    0.54328    0.04364    1.000
    Si2233   Si       0.47090    0.58661    0.04753    1.000
    N2234    N        0.41217    0.54501    0.00167    1.000
    N2235    N        0.34874    0.75546    0.02885    1.000
    N2236    N        0.24311    0.68737    0.03236    1.000
    Si2237   Si       0.30749    0.75417    0.03779    1.000
    N2238    N        0.28167    0.74391    0.00491    1.000
    N2239    N        0.31055    0.68238    0.01420    1.000
    Si2240   Si       0.35048    0.67477    0.03160    1.000
    Si2241   Si       0.28355    0.69050    0.04877    1.000
    N2242    N        0.38360    0.67360    0.00199    1.000
    Si2243   Si       0.42083    0.69441    0.00013    1.000
    Si2244   Si       0.45891    0.74634    0.04591    1.000
    Si2245   Si       0.38315    0.74074    0.05193    1.000
    N2246    N        0.42032    0.73338    0.02643    1.000
    N2247    N        0.45460    0.67065    0.01464    1.000
    N2248    N        0.32054    0.53342    0.09608    1.000
    N2249    N        0.30639    0.59036    0.08602    1.000
    Si2250   Si       0.27832    0.62050    0.09101    1.000
    Si2251   Si       0.35108    0.59361    0.07011    1.000
    Si2252   Si       0.30267    0.55012    0.05923    1.000
    N2253    N        0.23928    0.60565    0.08994    1.000
    N2254    N        0.25860    0.54696    0.05809    1.000
    N2255    N        0.44323    0.51415    0.10169    1.000
    N2256    N        0.46369    0.60015    0.08887    1.000
    Si2257   Si       0.47770    0.52053    0.07727    1.000
    Si2258   Si       0.40875    0.59610    0.09774    1.000
    N2259    N        0.39353    0.58297    0.06016    1.000
    N2260    N        0.35291    0.63653    0.05714    1.000
    N2261    N        0.28789    0.66093    0.08004    1.000
    N2262    N        0.30114    0.72609    0.06886    1.000
    Si2263   Si       0.30681    0.73245    0.11152    1.000
    Si2264   Si       0.48700    0.71244    0.10109    1.000
    N2265    N        0.36784    0.70097    0.06198    1.000
    Si2266   Si       0.37586    0.66415    0.08676    1.000
    N2267    N        0.47639    0.67565    0.08158    1.000
    N2268    N        0.45790    0.73994    0.08846    1.000
    Si2269   Si       0.45602    0.64230    0.09750    1.000
    N2270    N        0.41232    0.64073    0.09090    1.000
    N2271    N        0.26510    0.56761    0.13629    1.000
    N2272    N        0.32987    0.55442    0.15782    1.000
    Si2273   Si       0.24515    0.52916    0.14953    1.000
    Si2274   Si       0.30568    0.56735    0.12324    1.000
    N2275    N        0.27873    0.63284    0.13524    1.000
    N2276    N        0.36664    0.59104    0.11350    1.000
    Si2277   Si       0.37666    0.56465    0.14825    1.000
    N2278    N        0.39095    0.52268    0.14244    1.000
    Si2279   Si       0.43316    0.53839    0.13736    1.000
    N2280    N        0.42155    0.58018    0.13778    1.000
    Si2281   Si       0.44954    0.60479    0.16074    1.000
    N2282    N        0.48579    0.58048    0.15452    1.000
    N2283    N        0.45717    0.52528    0.17045    1.000
    N2284    N        0.34427    0.74012    0.13039    1.000
    N2285    N        0.29143    0.70104    0.13596    1.000
    N2286    N        0.34987    0.67102    0.12235    1.000
    Si2287   Si       0.30638    0.66510    0.12152    1.000
    N2288    N        0.24643    0.74001    0.16660    1.000
    Si2289   Si       0.36588    0.70486    0.14475    1.000
    N2290    N        0.47720    0.70996    0.14526    1.000
    Si2291   Si       0.47791    0.75244    0.15758    1.000
    N2292    N        0.40828    0.70466    0.12959    1.000
    Si2293   Si       0.44200    0.68543    0.14795    1.000
    N2294    N        0.45509    0.64521    0.14103    1.000
    Si2295   Si       0.42267    0.74279    0.11259    1.000
    Si2296   Si       0.33213    0.57533    0.20005    1.000
    N2297    N        0.31579    0.53638    0.21442    1.000
    N2298    N        0.31817    0.61762    0.18496    1.000
    N2299    N        0.26761    0.60253    0.22306    1.000
    Si2300   Si       0.27480    0.62885    0.18390    1.000
    Si2301   Si       0.33998    0.63235    0.21826    1.000
    Si2302   Si       0.31894    0.51688    0.17678    1.000
    N2303    N        0.37652    0.57664    0.19062    1.000
    N2304    N        0.44499    0.60296    0.20356    1.000
    Si2305   Si       0.40260    0.59846    0.21907    1.000
    N2306    N        0.49378    0.55674    0.22404    1.000
    N2307    N        0.26543    0.66948    0.19714    1.000
    Si2308   Si       0.33786    0.70450    0.22121    1.000
    N2309    N        0.30496    0.72733    0.20480    1.000
    Si2310   Si       0.27745    0.70856    0.17681    1.000
    N2311    N        0.48313    0.74386    0.19888    1.000
    N2312    N        0.38398    0.63638    0.21350    1.000
    N2313    N        0.36782    0.69555    0.18833    1.000
    Si2314   Si       0.40186    0.67746    0.21376    1.000
    Si2315   Si       0.47699    0.69986    0.20115    1.000
    N2316    N        0.43481    0.69082    0.18944    1.000
    Si2317   Si       0.31180    0.53545    0.25691    1.000
    Si2318   Si       0.27209    0.60029    0.26715    1.000
    N2319    N        0.27471    0.55732    0.26997    1.000
    N2320    N        0.33602    0.59341    0.24207    1.000
    N2321    N        0.35086    0.54048    0.28119    1.000
    Si2322   Si       0.25107    0.51675    0.27765    1.000
    Si2323   Si       0.36181    0.58453    0.27489    1.000
    N2324    N        0.46193    0.59076    0.27336    1.000
    N2325    N        0.40043    0.58446    0.25942    1.000
    Si2326   Si       0.43242    0.55884    0.27646    1.000
    N2327    N        0.42052    0.51723    0.26599    1.000
    Si2328   Si       0.47831    0.59674    0.23385    1.000
    N2329    N        0.35476    0.72539    0.25525    1.000
    N2330    N        0.26366    0.67945    0.26972    1.000
    Si2331   Si       0.30539    0.66710    0.27650    1.000
    N2332    N        0.32699    0.66647    0.23866    1.000
    Si2333   Si       0.24322    0.68147    0.23159    1.000
    N2334    N        0.40455    0.68680    0.25636    1.000
    Si2335   Si       0.37379    0.70017    0.28591    1.000
    N2336    N        0.46258    0.72045    0.28513    1.000
    Si2337   Si       0.44520    0.68433    0.27058    1.000
    N2338    N        0.47151    0.67666    0.23909    1.000
    N2339    N        0.34691    0.59287    0.31616    1.000
    Si2340   Si       0.31249    0.61343    0.33166    1.000
    Si2341   Si       0.34946    0.55041    0.32468    1.000
    N2342    N        0.31702    0.52774    0.34245    1.000
    N2343    N        0.29562    0.62927    0.29470    1.000
    Si2344   Si       0.47985    0.55461    0.33960    1.000
    N2345    N        0.43786    0.55141    0.31979    1.000
    Si2346   Si       0.46167    0.61344    0.31096    1.000
    Si2347   Si       0.41406    0.51900    0.33776    1.000
    N2348    N        0.43555    0.61970    0.34883    1.000
    N2349    N        0.24780    0.63629    0.34450    1.000
    N2350    N        0.33260    0.68931    0.30228    1.000
    Si2351   Si       0.34990    0.67892    0.34276    1.000
    Si2352   Si       0.24817    0.65441    0.30441    1.000
    N2353    N        0.38661    0.66697    0.31958    1.000
    Si2354   Si       0.42579    0.65929    0.33542    1.000
    N2355    N        0.45391    0.65637    0.30270    1.000
    N2356    N        0.38571    0.73340    0.31504    1.000
    Si2357   Si       0.30666    0.54918    0.37930    1.000
    Si2358   Si       0.26001    0.60796    0.37824    1.000
    N2359    N        0.29389    0.58722    0.36284    1.000
    N2360    N        0.34235    0.54864    0.40652    1.000
    N2361    N        0.46469    0.55815    0.38224    1.000
    Si2362   Si       0.44400    0.59624    0.38515    1.000
    Si2363   Si       0.38306    0.54826    0.39669    1.000
    Si2364   Si       0.45136    0.51711    0.39345    1.000
    N2365    N        0.38062    0.54350    0.35267    1.000
    N2366    N        0.40550    0.58618    0.40296    1.000
    N2367    N        0.41017    0.51697    0.40869    1.000
    Si2368   Si       0.30749    0.66094    0.39408    1.000
    N2369    N        0.28710    0.69757    0.38876    1.000
    Si2370   Si       0.24567    0.71003    0.38997    1.000
    N2371    N        0.32269    0.64773    0.35594    1.000
    N2372    N        0.40487    0.76099    0.37017    1.000
    N2373    N        0.43662    0.69480    0.35561    1.000
    N2374    N        0.36895    0.70077    0.37475    1.000
    N2375    N        0.47796    0.74900    0.38419    1.000
    Si2376   Si       0.47684    0.70684    0.37239    1.000
    Si2377   Si       0.40111    0.72031    0.35384    1.000
    Si2378   Si       0.31473    0.53450    0.43914    1.000
    N2379    N        0.28166    0.53460    0.41032    1.000
    N2380    N        0.37056    0.61049    0.45932    1.000
    Si2381   Si       0.40810    0.61074    0.43805    1.000
    N2382    N        0.45927    0.61727    0.41988    1.000
    N2383    N        0.47307    0.55562    0.45942    1.000
    Si2384   Si       0.48536    0.59538    0.44648    1.000
    Si2385   Si       0.27197    0.65473    0.44809    1.000
    N2386    N        0.33895    0.66613    0.42284    1.000
    Si2387   Si       0.34283    0.64232    0.45860    1.000
    Si2388   Si       0.26189    0.72509    0.46899    1.000
    N2389    N        0.24096    0.73091    0.43068    1.000
    N2390    N        0.27605    0.63351    0.40856    1.000
    Si2391   Si       0.37855    0.68528    0.41452    1.000
    Si2392   Si       0.44827    0.65965    0.42972    1.000
    N2393    N        0.47616    0.68363    0.40827    1.000
    N2394    N        0.40516    0.65217    0.42100    1.000
    N2395    N        0.39379    0.71026    0.44846    1.000
    Si2396   Si       0.40584    0.74987    0.45408    1.000
    Si2397   Si       0.29139    0.59041    0.48478    1.000
    N2398    N        0.26669    0.53454    0.51464    1.000
    N2399    N        0.24770    0.59049    0.47655    1.000
    N2400    N        0.32316    0.56259    0.47186    1.000
    N2401    N        0.30421    0.62846    0.46879    1.000
    N2402    N        0.36188    0.58344    0.52530    1.000
    Si2403   Si       0.36599    0.57423    0.48485    1.000
    Si2404   Si       0.44110    0.56219    0.48951    1.000
    N2405    N        0.39956    0.54675    0.48147    1.000
    N2406    N        0.43157    0.60400    0.47789    1.000
    N2407    N        0.35396    0.67096    0.49005    1.000
    Si2408   Si       0.31780    0.69039    0.50297    1.000
    N2409    N        0.32252    0.73100    0.51566    1.000
    N2410    N        0.28905    0.69091    0.46866    1.000
    N2411    N        0.23929    0.71662    0.50409    1.000
    Si2412   Si       0.45655    0.63380    0.49525    1.000
    Si2413   Si       0.39915    0.68524    0.48559    1.000
    N2414    N        0.40735    0.70400    0.52308    1.000
    N2415    N        0.43985    0.66935    0.47226    1.000
    Si2416   Si       0.32986    0.59257    0.54998    1.000
    Si2417   Si       0.28366    0.53641    0.55394    1.000
    N2418    N        0.31831    0.55659    0.56917    1.000
    N2419    N        0.34588    0.62429    0.57436    1.000
    N2420    N        0.29358    0.59709    0.52771    1.000
    N2421    N        0.26174    0.62939    0.57963    1.000
    N2422    N        0.42606    0.51740    0.57905    1.000
    Si2423   Si       0.43957    0.55729    0.57163    1.000
    N2424    N        0.45996    0.55859    0.52811    1.000
    Si2425   Si       0.43618    0.62998    0.57602    1.000
    Si2426   Si       0.27600    0.63479    0.53730    1.000
    N2427    N        0.35469    0.69781    0.56717    1.000
    N2428    N        0.30292    0.66723    0.53904    1.000
    Si2429   Si       0.34311    0.73607    0.55429    1.000
    Si2430   Si       0.32778    0.66402    0.57325    1.000
    N2431    N        0.24510    0.75379    0.56990    1.000
    Si2432   Si       0.48712    0.74803    0.55798    1.000
    Si2433   Si       0.39614    0.69083    0.56419    1.000
    Si2434   Si       0.41088    0.74702    0.53708    1.000
    N2435    N        0.41367    0.72722    0.57907    1.000
    N2436    N        0.45579    0.63757    0.53843    1.000
    Si2437   Si       0.26995    0.53129    0.62563    1.000
    Si2438   Si       0.34003    0.54412    0.60339    1.000
    N2439    N        0.31254    0.51971    0.62644    1.000
    N2440    N        0.25520    0.54416    0.58655    1.000
    N2441    N        0.36140    0.57501    0.62211    1.000
    Si2442   Si       0.37707    0.61151    0.60060    1.000
    N2443    N        0.48187    0.56638    0.58609    1.000
    N2444    N        0.41504    0.59306    0.58005    1.000
    Si2445   Si       0.26644    0.65509    0.61416    1.000
    N2446    N        0.30777    0.66534    0.61402    1.000
    N2447    N        0.31399    0.75301    0.58429    1.000
    N2448    N        0.47221    0.63499    0.59829    1.000
    N2449    N        0.40917    0.65921    0.59177    1.000
    Si2450   Si       0.47413    0.63939    0.64127    1.000
    N2451    N        0.36760    0.64305    0.63507    1.000
    N2452    N        0.47916    0.72227    0.59473    1.000
    Si2453   Si       0.43888    0.72573    0.61366    1.000
    Si2454   Si       0.40499    0.66378    0.63528    1.000
    Si2455   Si       0.29200    0.56841    0.68582    1.000
    N2456    N        0.33394    0.58289    0.68691    1.000
    N2457    N        0.26689    0.56664    0.65021    1.000
    N2458    N        0.29360    0.52600    0.69287    1.000
    N2459    N        0.36323    0.52209    0.67460    1.000
    Si2460   Si       0.23679    0.59729    0.65048    1.000
    Si2461   Si       0.36722    0.56395    0.66656    1.000
    N2462    N        0.40555    0.57831    0.67933    1.000
    Si2463   Si       0.41566    0.61924    0.68980    1.000
    Si2464   Si       0.43033    0.55067    0.70188    1.000
    N2465    N        0.43085    0.51099    0.68446    1.000
    N2466    N        0.25742    0.63560    0.65177    1.000
    Si2467   Si       0.33354    0.66783    0.64916    1.000
    Si2468   Si       0.27300    0.65767    0.68549    1.000
    Si2469   Si       0.30462    0.72827    0.67902    1.000
    N2470    N        0.34095    0.70810    0.66328    1.000
    N2471    N        0.31453    0.64987    0.68412    1.000
    N2472    N        0.27045    0.69988    0.67613    1.000
    N2473    N        0.43347    0.64110    0.65842    1.000
    N2474    N        0.47565    0.73343    0.69521    1.000
    Si2475   Si       0.37869    0.73081    0.66235    1.000
    N2476    N        0.38354    0.75086    0.70103    1.000
    N2477    N        0.40976    0.70598    0.64277    1.000
    N2478    N        0.28032    0.58246    0.72625    1.000
    N2479    N        0.33362    0.61591    0.74691    1.000
    Si2480   Si       0.31815    0.57591    0.75204    1.000
    Si2481   Si       0.34015    0.62289    0.70426    1.000
    Si2482   Si       0.24117    0.60359    0.72876    1.000
    N2483    N        0.35014    0.54884    0.76256    1.000
    N2484    N        0.41837    0.55534    0.74239    1.000
    Si2485   Si       0.45149    0.58834    0.74754    1.000
    N2486    N        0.43074    0.62472    0.73144    1.000
    Si2487   Si       0.38747    0.52786    0.75890    1.000
    N2488    N        0.46782    0.57321    0.70651    1.000
    N2489    N        0.30331    0.74196    0.72006    1.000
    N2490    N        0.25294    0.64486    0.72214    1.000
    Si2491   Si       0.30990    0.71571    0.75303    1.000
    N2492    N        0.29998    0.67511    0.75922    1.000
    Si2493   Si       0.25878    0.66470    0.75947    1.000
    N2494    N        0.35405    0.71053    0.75976    1.000
    Si2495   Si       0.46917    0.64464    0.74326    1.000
    Si2496   Si       0.45884    0.71166    0.73021    1.000
    N2497    N        0.37891    0.64234    0.70349    1.000
    Si2498   Si       0.38805    0.73054    0.73927    1.000
    Si2499   Si       0.40156    0.65767    0.73718    1.000
    N2500    N        0.48311    0.67520    0.71724    1.000
    N2501    N        0.41788    0.69805    0.72866    1.000
    N2502    N        0.31215    0.58502    0.79707    1.000
    Si2503   Si       0.35568    0.56416    0.80288    1.000
    N2504    N        0.26609    0.62825    0.78394    1.000
    Si2505   Si       0.30899    0.62981    0.78105    1.000
    N2506    N        0.44643    0.59133    0.79355    1.000
    N2507    N        0.39642    0.52544    0.80123    1.000
    N2508    N        0.46633    0.52705    0.80890    1.000
    N2509    N        0.38329    0.59780    0.80687    1.000
    Si2510   Si       0.43132    0.55220    0.81347    1.000
    Si2511   Si       0.41691    0.62785    0.79747    1.000
    Si2512   Si       0.47959    0.61924    0.80661    1.000
    N2513    N        0.28311    0.74165    0.77713    1.000
    N2514    N        0.33069    0.65303    0.81321    1.000
    Si2515   Si       0.35744    0.68237    0.79405    1.000
    Si2516   Si       0.23916    0.73291    0.78257    1.000
    N2517    N        0.39083    0.65783    0.77831    1.000
    N2518    N        0.46675    0.72177    0.77243    1.000
    Si2519   Si       0.47268    0.69186    0.80607    1.000
    N2520    N        0.45953    0.65497    0.78533    1.000
    N2521    N        0.40028    0.75217    0.77601    1.000
    Si2522   Si       0.37719    0.74711    0.81167    1.000
    Si2523   Si       0.48006    0.75812    0.78960    1.000
    N2524    N        0.28215    0.53895    0.85183    1.000
    Si2525   Si       0.30500    0.57501    0.83889    1.000
    N2526    N        0.34495    0.55571    0.84323    1.000
    N2527    N        0.29581    0.61303    0.85822    1.000
    Si2528   Si       0.35937    0.52581    0.87062    1.000
    N2529    N        0.36165    0.62176    0.86886    1.000
    Si2530   Si       0.23993    0.53746    0.83906    1.000
    Si2531   Si       0.39727    0.60645    0.84984    1.000
    N2532    N        0.42183    0.56967    0.85135    1.000
    Si2533   Si       0.24936    0.72197    0.85152    1.000
    Si2534   Si       0.32483    0.64294    0.85438    1.000
    Si2535   Si       0.32974    0.71541    0.86004    1.000
    N2536    N        0.29113    0.72675    0.84178    1.000
    N2537    N        0.35864    0.71025    0.82593    1.000
    Si2538   Si       0.44093    0.74335    0.85393    1.000
    N2539    N        0.42044    0.63964    0.83857    1.000
    N2540    N        0.44621    0.70241    0.83986    1.000
    Si2541   Si       0.44541    0.66496    0.86058    1.000
    N2542    N        0.39927    0.75700    0.84909    1.000
    N2543    N        0.48521    0.64729    0.84401    1.000
    N2544    N        0.26685    0.58900    0.91257    1.000
    N2545    N        0.32746    0.52319    0.90208    1.000
    Si2546   Si       0.35261    0.54698    0.92884    1.000
    N2547    N        0.33960    0.58819    0.92570    1.000
    N2548    N        0.25999    0.51430    0.91729    1.000
    Si2549   Si       0.28986    0.51181    0.88285    1.000
    Si2550   Si       0.24087    0.55447    0.91296    1.000
    Si2551   Si       0.25702    0.61631    0.88157    1.000
    Si2552   Si       0.36786    0.61674    0.91250    1.000
    Si2553   Si       0.42130    0.56434    0.89442    1.000
    N2554    N        0.41075    0.60490    0.90582    1.000
    N2555    N        0.44965    0.53967    0.91558    1.000
    N2556    N        0.38856    0.53586    0.90148    1.000
    N2557    N        0.47897    0.61718    0.91348    1.000
    Si2558   Si       0.44015    0.63292    0.92089    1.000
    N2559    N        0.24277    0.65034    0.90402    1.000
    N2560    N        0.24469    0.72234    0.89458    1.000
    N2561    N        0.33950    0.74625    0.88806    1.000
    Si2562   Si       0.32585    0.67204    0.92723    1.000
    Si2563   Si       0.32214    0.74910    0.92923    1.000
    N2564    N        0.32215    0.67581    0.88166    1.000
    N2565    N        0.36388    0.65324    0.93710    1.000
    Si2566   Si       0.44810    0.70736    0.92807    1.000
    N2567    N        0.43865    0.67236    0.90219    1.000
    N2568    N        0.44378    0.73988    0.89756    1.000
    N2569    N        0.29239    0.58098    0.97743    1.000
    N2570    N        0.35081    0.53997    0.97240    1.000
    Si2571   Si       0.25124    0.56952    0.98524    1.000
    Si2572   Si       0.33614    0.57734    0.99067    1.000
    N2573    N        0.25717    0.52566    0.99482    1.000
    Si2574   Si       0.29996    0.59958    0.93821    1.000
    N2575    N        0.48274    0.52517    0.97899    1.000
    Si2576   Si       0.38396    0.51573    0.98693    1.000
    N2577    N        0.37417    0.60476    0.98951    1.000
    Si2578   Si       0.48748    0.53597    0.93610    1.000
    Si2579   Si       0.45935    0.63366    0.99286    1.000
    Si2580   Si       0.29501    0.70776    0.98206    1.000
    N2581    N        0.32083    0.71054    0.94671    1.000
    N2582    N        0.25758    0.69633    0.96211    1.000
    Si2583   Si       0.25514    0.65450    0.94569    1.000
    N2584    N        0.29789    0.64273    0.94489    1.000
    Si2585   Si       0.24889    0.73227    0.93699    1.000
    N2586    N        0.48979    0.70471    0.94286    1.000
    Si2587   Si       0.38633    0.64192    0.97241    1.000
    N2588    N        0.42917    0.63967    0.96208    1.000
    N2589    N        0.42866    0.71901    0.96515    1.000
    N2590    N        0.25142    0.86262    0.02263    1.000
    Si2591   Si       0.25246    0.77271    0.02250    1.000
    Si2592   Si       0.35300    0.85418    0.02772    1.000
    N2593    N        0.34763    0.81977    0.00176    1.000
    Si2594   Si       0.29216    0.87796    0.02063    1.000
    N2595    N        0.28324    0.79005    0.04833    1.000
    N2596    N        0.31587    0.85886    0.05248    1.000
    Si2597   Si       0.46337    0.82452    0.04328    1.000
    N2598    N        0.43617    0.84827    0.01656    1.000
    N2599    N        0.46003    0.78429    0.02499    1.000
    Si2600   Si       0.41645    0.85967    0.05545    1.000
    Si2601   Si       0.28338    0.00612    0.02246    1.000
    N2602    N        0.29574    0.92039    0.02795    1.000
    N2603    N        0.30881    0.98510    0.05123    1.000
    N2604    N        0.26835    0.97453    0.99649    1.000
    N2605    N        0.42291    0.90174    0.05690    1.000
    N2606    N        0.40068    0.95746    0.01849    1.000
    N2607    N        0.48061    0.00767    0.04461    1.000
    N2608    N        0.37714    0.88774    0.01196    1.000
    Si2609   Si       0.38967    0.92198    0.03563    1.000
    Si2610   Si       0.28692    0.80056    0.08934    1.000
    N2611    N        0.32914    0.80631    0.09850    1.000
    Si2612   Si       0.33840    0.84822    0.08893    1.000
    N2613    N        0.26191    0.83118    0.10587    1.000
    N2614    N        0.44689    0.83800    0.07954    1.000
    N2615    N        0.37597    0.84719    0.06559    1.000
    N2616    N        0.39155    0.76362    0.09023    1.000
    Si2617   Si       0.26412    0.95254    0.11026    1.000
    N2618    N        0.30273    0.93869    0.09847    1.000
    N2619    N        0.35694    0.99187    0.10295    1.000
    N2620    N        0.35735    0.93047    0.06250    1.000
    Si2621   Si       0.31605    0.00387    0.09184    1.000
    Si2622   Si       0.31592    0.94275    0.05884    1.000
    N2623    N        0.27967    0.99543    0.11415    1.000
    Si2624   Si       0.44484    0.92545    0.08554    1.000
    Si2625   Si       0.37490    0.95172    0.09928    1.000
    N2626    N        0.41814    0.95645    0.10044    1.000
    N2627    N        0.48102    0.94495    0.06901    1.000
    Si2628   Si       0.27002    0.77958    0.15927    1.000
    Si2629   Si       0.27784    0.86614    0.12601    1.000
    N2630    N        0.27822    0.76692    0.11611    1.000
    N2631    N        0.32082    0.87276    0.11806    1.000
    Si2632   Si       0.35941    0.77998    0.11674    1.000
    N2633    N        0.26989    0.86991    0.16921    1.000
    N2634    N        0.37037    0.79584    0.15761    1.000
    N2635    N        0.43829    0.76929    0.14745    1.000
    N2636    N        0.42715    0.84022    0.15213    1.000
    Si2637   Si       0.41283    0.80108    0.16676    1.000
    Si2638   Si       0.45346    0.85285    0.11883    1.000
    N2639    N        0.24849    0.95720    0.15297    1.000
    N2640    N        0.25351    0.90345    0.11941    1.000
    N2641    N        0.30304    0.92435    0.16456    1.000
    Si2642   Si       0.26012    0.91386    0.16321    1.000
    Si2643   Si       0.26748    0.99611    0.15520    1.000
    Si2644   Si       0.32483    0.91488    0.12849    1.000
    N2645    N        0.36606    0.92851    0.13455    1.000
    N2646    N        0.30715    0.99600    0.17575    1.000
    Si2647   Si       0.48766    0.99410    0.17266    1.000
    N2648    N        0.45382    0.89626    0.11773    1.000
    N2649    N        0.47289    0.97219    0.13679    1.000
    Si2650   Si       0.42996    0.97552    0.13685    1.000
    N2651    N        0.41516    0.95882    0.17306    1.000
    N2652    N        0.33222    0.84699    0.19474    1.000
    Si2653   Si       0.34240    0.80654    0.18968    1.000
    Si2654   Si       0.29368    0.86468    0.20627    1.000
    Si2655   Si       0.30463    0.76764    0.21827    1.000
    N2656    N        0.34325    0.78310    0.22686    1.000
    N2657    N        0.30362    0.78973    0.18221    1.000
    N2658    N        0.26529    0.83840    0.22775    1.000
    Si2659   Si       0.41999    0.85672    0.19369    1.000
    N2660    N        0.40999    0.81423    0.20989    1.000
    N2661    N        0.45570    0.86479    0.21672    1.000
    N2662    N        0.35271    0.94778    0.20156    1.000
    Si2663   Si       0.31333    0.95678    0.19033    1.000
    N2664    N        0.28956    0.95938    0.22565    1.000
    N2665    N        0.45915    0.00583    0.20329    1.000
    Si2666   Si       0.38229    0.93028    0.17447    1.000
    N2667    N        0.39711    0.89371    0.19201    1.000
    Si2668   Si       0.43342    0.97122    0.20965    1.000
    N2669    N        0.46293    0.93976    0.22029    1.000
    Si2670   Si       0.25495    0.85515    0.26579    1.000
    N2671    N        0.27714    0.77214    0.25163    1.000
    Si2672   Si       0.31893    0.87461    0.27642    1.000
    Si2673   Si       0.35846    0.76618    0.26664    1.000
    Si2674   Si       0.29274    0.79770    0.28172    1.000
    N2675    N        0.29168    0.84283    0.28763    1.000
    Si2676   Si       0.42603    0.80817    0.24897    1.000
    N2677    N        0.42688    0.84253    0.27302    1.000
    N2678    N        0.46629    0.78883    0.24957    1.000
    N2679    N        0.40044    0.77977    0.27061    1.000
    Si2680   Si       0.47110    0.76224    0.28563    1.000
    Si2681   Si       0.45089    0.87645    0.25808    1.000
    N2682    N        0.26434    0.95700    0.27872    1.000
    Si2683   Si       0.30249    0.93553    0.26151    1.000
    N2684    N        0.30529    0.89338    0.23908    1.000
    Si2685   Si       0.25762    0.98343    0.24398    1.000
    N2686    N        0.33953    0.96030    0.26878    1.000
    N2687    N        0.48590    0.88232    0.28267    1.000
    Si2688   Si       0.36275    0.97333    0.23607    1.000
    Si2689   Si       0.41920    0.00461    0.27546    1.000
    N2690    N        0.41923    0.90278    0.27442    1.000
    N2691    N        0.40550    0.97720    0.24240    1.000
    N2692    N        0.27017    0.79138    0.32067    1.000
    Si2693   Si       0.34901    0.82431    0.31490    1.000
    Si2694   Si       0.27885    0.83232    0.32886    1.000
    N2695    N        0.32051    0.83302    0.34602    1.000
    N2696    N        0.33251    0.78829    0.29227    1.000
    N2697    N        0.35728    0.85947    0.28933    1.000
    N2698    N        0.38886    0.81245    0.32830    1.000
    Si2699   Si       0.40458    0.77434    0.31484    1.000
    N2700    N        0.44944    0.77613    0.31980    1.000
    N2701    N        0.40852    0.87237    0.33609    1.000
    Si2702   Si       0.39895    0.87038    0.29455    1.000
    N2703    N        0.30914    0.90862    0.30002    1.000
    Si2704   Si       0.27288    0.98356    0.31307    1.000
    Si2705   Si       0.29073    0.92009    0.33641    1.000
    N2706    N        0.35542    0.98179    0.33993    1.000
    Si2707   Si       0.34262    0.99249    0.30040    1.000
    N2708    N        0.24687    0.91527    0.32726    1.000
    N2709    N        0.29183    0.96145    0.34581    1.000
    N2710    N        0.42153    0.97609    0.31254    1.000
    Si2711   Si       0.48428    0.90944    0.31548    1.000
    Si2712   Si       0.46346    0.98118    0.31565    1.000
    Si2713   Si       0.39841    0.97888    0.34788    1.000
    Si2714   Si       0.33471    0.83695    0.38695    1.000
    N2715    N        0.34285    0.87528    0.40096    1.000
    N2716    N        0.24288    0.84904    0.34805    1.000
    N2717    N        0.37898    0.82496    0.39390    1.000
    N2718    N        0.44097    0.81340    0.38206    1.000
    Si2719   Si       0.40709    0.83654    0.36109    1.000
    N2720    N        0.42146    0.87426    0.39855    1.000
    Si2721   Si       0.46364    0.78388    0.35909    1.000
    Si2722   Si       0.40739    0.78921    0.40312    1.000
    Si2723   Si       0.45575    0.84726    0.40785    1.000
    Si2724   Si       0.24292    0.89160    0.36287    1.000
    N2725    N        0.28662    0.89954    0.37244    1.000
    N2726    N        0.33697    0.94564    0.39706    1.000
    Si2727   Si       0.32489    0.97660    0.37124    1.000
    Si2728   Si       0.31516    0.90896    0.40559    1.000
    N2729    N        0.46393    0.90808    0.35416    1.000
    N2730    N        0.39807    0.93871    0.36885    1.000
    Si2731   Si       0.37936    0.94622    0.40692    1.000
    Si2732   Si       0.42035    0.90246    0.36324    1.000
    N2733    N        0.48352    0.98802    0.35330    1.000
    Si2734   Si       0.28473    0.79645    0.44041    1.000
    N2735    N        0.31717    0.81541    0.42095    1.000
    Si2736   Si       0.35372    0.80783    0.44455    1.000
    Si2737   Si       0.27833    0.87166    0.46233    1.000
    N2738    N        0.24685    0.79658    0.41762    1.000
    N2739    N        0.28613    0.76106    0.46690    1.000
    N2740    N        0.24301    0.86884    0.43129    1.000
    Si2741   Si       0.48025    0.76285    0.42406    1.000
    N2742    N        0.43832    0.76841    0.43253    1.000
    N2743    N        0.37473    0.84617    0.45826    1.000
    Si2744   Si       0.38271    0.87170    0.42292    1.000
    N2745    N        0.46076    0.84283    0.45034    1.000
    N2746    N        0.37743    0.77480    0.43239    1.000
    N2747    N        0.28884    0.91130    0.44139    1.000
    N2748    N        0.33588    0.99842    0.45557    1.000
    N2749    N        0.26529    0.98188    0.44543    1.000
    Si2750   Si       0.29890    0.00841    0.43334    1.000
    N2751    N        0.38387    0.91440    0.43725    1.000
    N2752    N        0.39053    0.98910    0.40775    1.000
    N2753    N        0.34221    0.80151    0.48666    1.000
    N2754    N        0.31688    0.86880    0.48454    1.000
    Si2755   Si       0.35315    0.84592    0.49562    1.000
    Si2756   Si       0.31390    0.77111    0.50030    1.000
    Si2757   Si       0.25125    0.80796    0.50952    1.000
    N2758    N        0.26552    0.82575    0.47110    1.000
    N2759    N        0.41052    0.76490    0.49404    1.000
    Si2760   Si       0.44536    0.78765    0.50266    1.000
    Si2761   Si       0.45088    0.86217    0.48789    1.000
    N2762    N        0.44001    0.82887    0.51676    1.000
    N2763    N        0.48608    0.78756    0.48575    1.000
    N2764    N        0.25254    0.88742    0.49496    1.000
    N2765    N        0.25636    0.95262    0.51116    1.000
    N2766    N        0.31511    0.93997    0.49112    1.000
    Si2767   Si       0.34089    0.97462    0.49216    1.000
    Si2768   Si       0.32396    0.90373    0.50991    1.000
    Si2769   Si       0.27444    0.94338    0.46818    1.000
    N2770    N        0.36754    0.89343    0.50980    1.000
    N2771    N        0.33463    0.00244    0.52562    1.000
    N2772    N        0.48890    0.88087    0.49599    1.000
    Si2773   Si       0.48922    0.98228    0.48656    1.000
    N2774    N        0.42982    0.90073    0.48764    1.000
    Si2775   Si       0.46866    0.92239    0.49939    1.000
    Si2776   Si       0.39103    0.91803    0.48056    1.000
    N2777    N        0.38087    0.95924    0.49134    1.000
    Si2778   Si       0.41319    0.98524    0.50122    1.000
    N2779    N        0.45169    0.96759    0.50402    1.000
    Si2780   Si       0.28086    0.77893    0.57055    1.000
    Si2781   Si       0.25994    0.87394    0.53558    1.000
    N2782    N        0.28486    0.78951    0.52814    1.000
    N2783    N        0.36836    0.83782    0.53929    1.000
    Si2784   Si       0.37052    0.80735    0.56897    1.000
    N2785    N        0.37245    0.76746    0.55148    1.000
    Si2786   Si       0.43418    0.83505    0.55846    1.000
    N2787    N        0.47655    0.84841    0.57026    1.000
    N2788    N        0.42060    0.87577    0.55899    1.000
    N2789    N        0.45114    0.76168    0.53819    1.000
    N2790    N        0.35596    0.90240    0.57774    1.000
    N2791    N        0.30043    0.89159    0.54410    1.000
    Si2792   Si       0.25526    0.94656    0.55684    1.000
    Si2793   Si       0.31089    0.91026    0.58274    1.000
    Si2794   Si       0.36686    0.00729    0.55431    1.000
    Si2795   Si       0.37865    0.87874    0.54875    1.000
    N2796    N        0.47238    0.92238    0.54268    1.000
    N2797    N        0.40783    0.99560    0.54323    1.000
    Si2798   Si       0.47485    0.96528    0.54575    1.000
    Si2799   Si       0.46300    0.88957    0.56650    1.000
    Si2800   Si       0.30648    0.83662    0.61167    1.000
    N2801    N        0.33969    0.81006    0.60026    1.000
    Si2802   Si       0.33243    0.77074    0.62029    1.000
    N2803    N        0.27088    0.81564    0.59403    1.000
    N2804    N        0.29989    0.87954    0.61051    1.000
    Si2805   Si       0.41016    0.79225    0.62751    1.000
    N2806    N        0.44535    0.76716    0.62782    1.000
    N2807    N        0.47473    0.82559    0.63476    1.000
    Si2808   Si       0.48368    0.78473    0.62074    1.000
    N2809    N        0.37511    0.76451    0.63200    1.000
    N2810    N        0.41064    0.81390    0.58794    1.000
    Si2811   Si       0.26200    0.96213    0.62443    1.000
    Si2812   Si       0.35098    0.97801    0.63095    1.000
    N2813    N        0.31186    0.99354    0.63484    1.000
    N2814    N        0.28270    0.94418    0.58910    1.000
    N2815    N        0.35337    0.93562    0.63569    1.000
    N2816    N        0.25033    0.00611    0.61746    1.000
    N2817    N        0.46612    0.97176    0.58821    1.000
    Si2818   Si       0.38249    0.91568    0.60938    1.000
    Si2819   Si       0.41429    0.98025    0.58495    1.000
    Si2820   Si       0.45856    0.93751    0.61414    1.000
    N2821    N        0.36999    0.98635    0.59208    1.000
    N2822    N        0.41687    0.94008    0.59903    1.000
    N2823    N        0.47609    0.89829    0.60599    1.000
    Si2824   Si       0.30431    0.80094    0.68181    1.000
    N2825    N        0.30135    0.83515    0.65362    1.000
    N2826    N        0.30932    0.76571    0.65639    1.000
    Si2827   Si       0.29028    0.88061    0.65263    1.000
    Si2828   Si       0.33312    0.85440    0.69330    1.000
    N2829    N        0.34312    0.81146    0.69639    1.000
    Si2830   Si       0.40554    0.85826    0.67152    1.000
    N2831    N        0.40310    0.81603    0.66408    1.000
    Si2832   Si       0.47562    0.84208    0.67472    1.000
    N2833    N        0.44422    0.87040    0.68638    1.000
    Si2834   Si       0.38355    0.79418    0.69841    1.000
    N2835    N        0.47952    0.80881    0.70095    1.000
    N2836    N        0.37494    0.86983    0.70034    1.000
    N2837    N        0.32188    0.89308    0.67654    1.000
    N2838    N        0.24993    0.88874    0.66632    1.000
    N2839    N        0.27222    0.95202    0.66676    1.000
    Si2840   Si       0.25216    0.92446    0.69280    1.000
    Si2841   Si       0.29490    0.98626    0.67502    1.000
    Si2842   Si       0.36175    0.90820    0.66808    1.000
    N2843    N        0.39163    0.88676    0.64031    1.000
    N2844    N        0.46716    0.94372    0.65585    1.000
    Si2845   Si       0.47367    0.90600    0.67680    1.000
    N2846    N        0.37512    0.99196    0.66449    1.000
    Si2847   Si       0.48127    0.97893    0.67550    1.000
    N2848    N        0.29975    0.85300    0.72171    1.000
    Si2849   Si       0.26278    0.83722    0.73875    1.000
    Si2850   Si       0.27023    0.77059    0.74035    1.000
    N2851    N        0.26546    0.79819    0.70353    1.000
    Si2852   Si       0.48615    0.81811    0.74341    1.000
    N2853    N        0.40501    0.80638    0.73501    1.000
    N2854    N        0.46903    0.85754    0.75638    1.000
    N2855    N        0.24512    0.97652    0.74000    1.000
    Si2856   Si       0.29951    0.88929    0.74339    1.000
    N2857    N        0.27768    0.92236    0.72966    1.000
    N2858    N        0.32557    0.98576    0.70813    1.000
    Si2859   Si       0.27483    0.95175    0.76004    1.000
    N2860    N        0.34165    0.89231    0.75661    1.000
    Si2861   Si       0.32274    0.00551    0.74714    1.000
    N2862    N        0.47661    0.91712    0.71925    1.000
    Si2863   Si       0.36868    0.97531    0.70496    1.000
    Si2864   Si       0.37767    0.90062    0.73181    1.000
    Si2865   Si       0.44836    0.88459    0.73045    1.000
    N2866    N        0.41559    0.90072    0.75159    1.000
    N2867    N        0.38843    0.99184    0.74138    1.000
    N2868    N        0.37580    0.93222    0.70302    1.000
    N2869    N        0.46444    0.99055    0.71471    1.000
    Si2870   Si       0.28624    0.83283    0.80162    1.000
    N2871    N        0.32803    0.84252    0.80470    1.000
    N2872    N        0.26957    0.87080    0.77272    1.000
    N2873    N        0.34258    0.77239    0.80909    1.000
    Si2874   Si       0.34719    0.88070    0.79747    1.000
    Si2875   Si       0.30008    0.76265    0.81093    1.000
    N2876    N        0.27878    0.80728    0.76453    1.000
    N2877    N        0.46287    0.79043    0.76807    1.000
    Si2878   Si       0.41906    0.79170    0.77427    1.000
    N2879    N        0.39847    0.81431    0.80779    1.000
    Si2880   Si       0.48261    0.86770    0.79689    1.000
    N2881    N        0.38734    0.88058    0.81303    1.000
    Si2882   Si       0.24043    0.89969    0.78508    1.000
    N2883    N        0.25772    0.93795    0.79776    1.000
    Si2884   Si       0.31442    0.99415    0.80898    1.000
    N2885    N        0.31076    0.97216    0.77194    1.000
    Si2886   Si       0.24139    0.97429    0.81677    1.000
    N2887    N        0.37937    0.94493    0.79482    1.000
    Si2888   Si       0.41019    0.91437    0.79408    1.000
    Si2889   Si       0.37720    0.98796    0.78257    1.000
    N2890    N        0.48536    0.91063    0.79347    1.000
    N2891    N        0.27020    0.86057    0.84141    1.000
    Si2892   Si       0.26854    0.82076    0.86275    1.000
    N2893    N        0.35265    0.81356    0.86641    1.000
    N2894    N        0.28196    0.79786    0.82871    1.000
    Si2895   Si       0.35452    0.81228    0.82184    1.000
    Si2896   Si       0.47620    0.80921    0.85026    1.000
    N2897    N        0.47069    0.76875    0.83219    1.000
    N2898    N        0.41428    0.86581    0.86888    1.000
    Si2899   Si       0.41560    0.84931    0.82719    1.000
    N2900    N        0.46089    0.84159    0.82297    1.000
    Si2901   Si       0.35414    0.93710    0.82918    1.000
    N2902    N        0.33565    0.97546    0.84021    1.000
    Si2903   Si       0.29587    0.89280    0.85685    1.000
    N2904    N        0.32447    0.90730    0.82507    1.000
    N2905    N        0.27436    0.00391    0.81994    1.000
    N2906    N        0.37137    0.92399    0.86633    1.000
    Si2907   Si       0.47498    0.93187    0.82975    1.000
    N2908    N        0.43272    0.92239    0.83128    1.000
    Si2909   Si       0.41192    0.91013    0.86707    1.000
    Si2910   Si       0.33108    0.83797    0.89576    1.000
    N2911    N        0.29061    0.82031    0.89893    1.000
    Si2912   Si       0.26659    0.80245    0.93188    1.000
    N2913    N        0.32423    0.87962    0.88641    1.000
    N2914    N        0.27951    0.76190    0.93245    1.000
    N2915    N        0.35043    0.83623    0.93347    1.000
    N2916    N        0.46902    0.86867    0.91137    1.000
    N2917    N        0.39553    0.78629    0.91259    1.000
    Si2918   Si       0.43200    0.84483    0.90216    1.000
    Si2919   Si       0.43726    0.77890    0.91349    1.000
    N2920    N        0.45291    0.80960    0.88772    1.000
    Si2921   Si       0.37093    0.77530    0.87704    1.000
    Si2922   Si       0.28823    0.95383    0.91326    1.000
    N2923    N        0.33302    0.95487    0.91177    1.000
    Si2924   Si       0.34775    0.91228    0.90031    1.000
    N2925    N        0.27247    0.99359    0.91727    1.000
    Si2926   Si       0.34818    0.98372    0.88051    1.000
    N2927    N        0.27486    0.92486    0.87994    1.000
    N2928    N        0.45721    0.99187    0.92820    1.000
    N2929    N        0.39248    0.98713    0.88782    1.000
    Si2930   Si       0.42284    0.96822    0.91262    1.000
    N2931    N        0.43368    0.92664    0.90277    1.000
    Si2932   Si       0.47554    0.91148    0.90145    1.000
    N2933    N        0.28317    0.82343    0.96652    1.000
    Si2934   Si       0.32557    0.83374    0.96720    1.000
    N2935    N        0.32031    0.87333    0.98646    1.000
    Si2936   Si       0.24657    0.84181    0.98373    1.000
    N2937    N        0.34314    0.77443    0.95730    1.000
    Si2938   Si       0.36194    0.78009    0.99628    1.000
    Si2939   Si       0.43534    0.76219    0.99023    1.000
    N2940    N        0.40135    0.78830    0.98103    1.000
    N2941    N        0.45911    0.77787    0.95366    1.000
    Si2942   Si       0.44200    0.85797    0.97567    1.000
    Si2943   Si       0.38501    0.81104    0.94667    1.000
    N2944    N        0.41672    0.84406    0.94344    1.000
    N2945    N        0.48700    0.84029    0.97165    1.000
    Si2946   Si       0.35855    0.95956    0.94707    1.000
    N2947    N        0.28083    0.92880    0.94863    1.000
    N2948    N        0.33870    0.93852    0.97933    1.000
    Si2949   Si       0.35434    0.89903    0.97670    1.000
    Si2950   Si       0.29428    0.94005    0.98866    1.000
    N2951    N        0.35967    0.99973    0.96908    1.000
    N2952    N        0.40217    0.95639    0.95026    1.000
    N2953    N        0.44242    0.90025    0.97075    1.000
    N2954    N        0.47599    0.96194    0.99234    1.000
    Si2955   Si       0.46350    0.00011    0.97205    1.000
    Si2956   Si       0.39751    0.98276    0.98567    1.000
    Si2957   Si       0.47877    0.92375    0.97658    1.000
    Si2958   Si       0.41374    0.91527    0.94250    1.000
    N2959    N        0.37175    0.90402    0.93683    1.000
    Si2960   Si       0.54755    0.06252    0.03776    1.000
    N2961    N        0.50497    0.07149    0.04387    1.000
    N2962    N        0.56099    0.02123    0.04664    1.000
    Si2963   Si       0.49182    0.11526    0.03705    1.000
    N2964    N        0.68493    0.12811    0.99906    1.000
    Si2965   Si       0.61448    0.10124    0.04701    1.000
    N2966    N        0.61520    0.11936    0.00613    1.000
    Si2967   Si       0.73285    0.03621    0.03770    1.000
    N2968    N        0.69477    0.03862    0.01438    1.000
    N2969    N        0.63387    0.06257    0.04454    1.000
    Si2970   Si       0.51574    0.25715    0.00300    1.000
    N2971    N        0.52800    0.13607    0.02495    1.000
    Si2972   Si       0.57067    0.20880    0.02232    1.000
    N2973    N        0.52876    0.22433    0.02893    1.000
    N2974    N        0.59910    0.23987    0.02726    1.000
    N2975    N        0.58008    0.17787    0.05073    1.000
    N2976    N        0.64748    0.17734    0.03443    1.000
    N2977    N        0.71842    0.18059    0.03373    1.000
    Si2978   Si       0.68010    0.20261    0.02283    1.000
    N2979    N        0.67846    0.23703    0.04817    1.000
    Si2980   Si       0.72618    0.14841    0.00744    1.000
    Si2981   Si       0.64519    0.14983    0.00082    1.000
    Si2982   Si       0.49753    0.07728    0.08836    1.000
    Si2983   Si       0.57096    0.09506    0.10363    1.000
    N2984    N        0.59911    0.01850    0.09509    1.000
    N2985    N        0.57353    0.09029    0.05947    1.000
    N2986    N        0.53538    0.06700    0.10781    1.000
    N2987    N        0.49232    0.11876    0.08087    1.000
    N2988    N        0.66445    0.01639    0.07107    1.000
    Si2989   Si       0.71685    0.09616    0.09750    1.000
    N2990    N        0.67266    0.08914    0.09293    1.000
    N2991    N        0.72136    0.06793    0.06573    1.000
    Si2992   Si       0.62242    0.02278    0.05882    1.000
    Si2993   Si       0.64332    0.11429    0.11397    1.000
    Si2994   Si       0.67525    0.05934    0.06050    1.000
    N2995    N        0.55946    0.13796    0.10070    1.000
    Si2996   Si       0.50757    0.22105    0.06595    1.000
    N2997    N        0.51760    0.18007    0.08004    1.000
    N2998    N        0.51204    0.25366    0.09440    1.000
    Si2999   Si       0.54713    0.15044    0.06036    1.000
    Si3000   Si       0.61922    0.17431    0.06712    1.000
    N3001    N        0.62793    0.20511    0.09749    1.000
    N3002    N        0.62655    0.13081    0.07707    1.000
    Si3003   Si       0.66264    0.22533    0.08615    1.000
    N3004    N        0.69900    0.20169    0.09569    1.000
    Si3005   Si       0.53063    0.02876    0.13263    1.000
    N3006    N        0.60812    0.09215    0.12680    1.000
    Si3007   Si       0.60743    0.02145    0.13818    1.000
    N3008    N        0.56622    0.01340    0.15402    1.000
    N3009    N        0.49189    0.03189    0.15185    1.000
    Si3010   Si       0.60455    0.08582    0.16905    1.000
    Si3011   Si       0.70389    0.12387    0.15976    1.000
    N3012    N        0.72243    0.08842    0.14037    1.000
    Si3013   Si       0.54089    0.25207    0.12950    1.000
    N3014    N        0.50789    0.15803    0.13623    1.000
    Si3015   Si       0.60319    0.21137    0.13464    1.000
    N3016    N        0.56035    0.21214    0.13060    1.000
    N3017    N        0.51699    0.25322    0.16865    1.000
    N3018    N        0.61181    0.25023    0.15466    1.000
    Si3019   Si       0.54309    0.17415    0.11910    1.000
    N3020    N        0.61661    0.18223    0.16378    1.000
    N3021    N        0.73227    0.15775    0.16446    1.000
    Si3022   Si       0.65496    0.25264    0.15173    1.000
    N3023    N        0.66833    0.14126    0.13973    1.000
    Si3024   Si       0.65969    0.17581    0.16503    1.000
    Si3025   Si       0.71510    0.21645    0.13418    1.000
    N3026    N        0.67841    0.21499    0.16084    1.000
    N3027    N        0.72578    0.25795    0.15027    1.000
    Si3028   Si       0.54551    0.11264    0.20224    1.000
    Si3029   Si       0.57627    0.03750    0.19496    1.000
    N3030    N        0.50292    0.11597    0.19208    1.000
    N3031    N        0.56367    0.07811    0.17994    1.000
    N3032    N        0.61687    0.11841    0.19332    1.000
    Si3033   Si       0.70849    0.06630    0.20297    1.000
    N3034    N        0.69445    0.10660    0.19800    1.000
    Si3035   Si       0.65170    0.01822    0.18191    1.000
    N3036    N        0.69192    0.03220    0.17838    1.000
    N3037    N        0.61668    0.04432    0.17613    1.000
    N3038    N        0.55513    0.22776    0.22119    1.000
    Si3039   Si       0.53961    0.18816    0.21654    1.000
    N3040    N        0.50031    0.18400    0.19860    1.000
    N3041    N        0.56000    0.15469    0.19588    1.000
    Si3042   Si       0.60321    0.15806    0.19855    1.000
    Si3043   Si       0.68530    0.13770    0.22691    1.000
    Si3044   Si       0.70360    0.24187    0.19055    1.000
    N3045    N        0.66733    0.17211    0.20813    1.000
    Si3046   Si       0.55064    0.07195    0.26809    1.000
    N3047    N        0.53252    0.10330    0.24420    1.000
    Si3048   Si       0.49814    0.02991    0.26639    1.000
    N3049    N        0.56421    0.04451    0.23629    1.000
    Si3050   Si       0.48844    0.10500    0.23416    1.000
    N3051    N        0.67175    0.12324    0.26412    1.000
    N3052    N        0.69545    0.05713    0.24327    1.000
    Si3053   Si       0.67728    0.08162    0.27488    1.000
    Si3054   Si       0.67175    0.02208    0.25562    1.000
    N3055    N        0.64716    0.04943    0.27902    1.000
    N3056    N        0.49301    0.21192    0.25384    1.000
    Si3057   Si       0.50636    0.17418    0.27381    1.000
    Si3058   Si       0.58707    0.23555    0.24953    1.000
    N3059    N        0.54527    0.17102    0.25556    1.000
    Si3060   Si       0.58363    0.16955    0.27679    1.000
    Si3061   Si       0.49720    0.25000    0.27117    1.000
    N3062    N        0.61254    0.16838    0.24194    1.000
    N3063    N        0.62647    0.23386    0.23194    1.000
    N3064    N        0.69047    0.23878    0.23570    1.000
    Si3065   Si       0.70625    0.22162    0.27182    1.000
    N3066    N        0.67309    0.19038    0.27467    1.000
    Si3067   Si       0.64783    0.19470    0.24029    1.000
    N3068    N        0.72387    0.15309    0.23547    1.000
    Si3069   Si       0.51548    0.08249    0.33285    1.000
    Si3070   Si       0.58597    0.10084    0.32784    1.000
    N3071    N        0.50543    0.12386    0.33098    1.000
    Si3072   Si       0.61027    0.04147    0.29781    1.000
    N3073    N        0.58450    0.07464    0.29381    1.000
    N3074    N        0.51912    0.05825    0.29616    1.000
    N3075    N        0.60610    0.02421    0.33717    1.000
    N3076    N        0.68630    0.08787    0.31799    1.000
    Si3077   Si       0.72645    0.07413    0.32727    1.000
    N3078    N        0.71885    0.03368    0.34649    1.000
    Si3079   Si       0.66126    0.10803    0.34879    1.000
    Si3080   Si       0.53919    0.15116    0.33587    1.000
    N3081    N        0.57438    0.14118    0.31043    1.000
    N3082    N        0.51401    0.18263    0.31467    1.000
    Si3083   Si       0.60121    0.23307    0.32213    1.000
    N3084    N        0.52081    0.24624    0.30712    1.000
    Si3085   Si       0.50462    0.21665    0.34395    1.000
    N3086    N        0.58970    0.21080    0.28670    1.000
    N3087    N        0.63879    0.25190    0.31066    1.000
    Si3088   Si       0.67803    0.15275    0.29695    1.000
    N3089    N        0.71959    0.15128    0.30942    1.000
    N3090    N        0.65437    0.14784    0.33328    1.000
    N3091    N        0.70763    0.24651    0.30711    1.000
    Si3092   Si       0.67474    0.24751    0.33502    1.000
    N3093    N        0.55275    0.08607    0.35496    1.000
    Si3094   Si       0.55302    0.08090    0.39825    1.000
    N3095    N        0.58160    0.04524    0.40060    1.000
    N3096    N        0.51505    0.00737    0.40453    1.000
    Si3097   Si       0.61428    0.05215    0.37360    1.000
    N3098    N        0.67707    0.10258    0.38870    1.000
    N3099    N        0.64697    0.03803    0.39920    1.000
    N3100    N        0.62071    0.09027    0.35299    1.000
    N3101    N        0.53778    0.22018    0.37373    1.000
    N3102    N        0.55507    0.15844    0.37512    1.000
    Si3103   Si       0.57603    0.19787    0.37615    1.000
    N3104    N        0.60972    0.20163    0.35040    1.000
    N3105    N        0.68119    0.21091    0.35770    1.000
    N3106    N        0.64438    0.16635    0.39976    1.000
    N3107    N        0.73083    0.16556    0.38243    1.000
    Si3108   Si       0.64742    0.18117    0.35845    1.000
    Si3109   Si       0.72020    0.20776    0.37993    1.000
    N3110    N        0.71540    0.23807    0.41204    1.000
    Si3111   Si       0.58734    0.03091    0.44101    1.000
    N3112    N        0.57582    0.11112    0.42176    1.000
    N3113    N        0.51647    0.07430    0.42264    1.000
    Si3114   Si       0.51644    0.03159    0.44009    1.000
    Si3115   Si       0.60023    0.10049    0.45722    1.000
    N3116    N        0.49721    0.12917    0.46642    1.000
    N3117    N        0.55234    0.03558    0.46582    1.000
    N3118    N        0.61482    0.05977    0.45999    1.000
    N3119    N        0.71704    0.03897    0.41633    1.000
    N3120    N        0.69225    0.08183    0.45339    1.000
    N3121    N        0.63920    0.11967    0.44960    1.000
    Si3122   Si       0.73391    0.06892    0.44371    1.000
    Si3123   Si       0.67731    0.06570    0.41269    1.000
    Si3124   Si       0.66503    0.13395    0.41706    1.000
    N3125    N        0.67145    0.01451    0.46809    1.000
    Si3126   Si       0.56985    0.15416    0.41895    1.000
    N3127    N        0.58748    0.19391    0.41728    1.000
    N3128    N        0.53380    0.22722    0.44765    1.000
    N3129    N        0.55475    0.16401    0.45871    1.000
    Si3130   Si       0.60265    0.25608    0.43261    1.000
    Si3131   Si       0.53415    0.24574    0.40815    1.000
    N3132    N        0.70029    0.14998    0.43956    1.000
    Si3133   Si       0.62957    0.19771    0.42774    1.000
    N3134    N        0.64941    0.19061    0.46512    1.000
    N3135    N        0.63928    0.23871    0.41528    1.000
    N3136    N        0.56745    0.09883    0.48672    1.000
    Si3137   Si       0.55219    0.06152    0.50034    1.000
    N3138    N        0.51779    0.07417    0.52424    1.000
    Si3139   Si       0.53855    0.12966    0.48414    1.000
    N3140    N        0.65116    0.08006    0.50762    1.000
    Si3141   Si       0.64234    0.04108    0.48602    1.000
    Si3142   Si       0.66829    0.10622    0.47743    1.000
    N3143    N        0.62456    0.01657    0.51668    1.000
    N3144    N        0.54062    0.21590    0.51029    1.000
    Si3145   Si       0.50886    0.23207    0.48291    1.000
    N3146    N        0.59977    0.18607    0.51133    1.000
    N3147    N        0.52558    0.14351    0.52413    1.000
    N3148    N        0.60208    0.23554    0.46989    1.000
    Si3149   Si       0.51338    0.18482    0.52459    1.000
    Si3150   Si       0.56681    0.20696    0.47015    1.000
    N3151    N        0.72118    0.19978    0.48439    1.000
    Si3152   Si       0.68808    0.17284    0.47470    1.000
    Si3153   Si       0.70859    0.23075    0.51385    1.000
    N3154    N        0.68400    0.13878    0.50270    1.000
    N3155    N        0.66722    0.21868    0.52016    1.000
    Si3156   Si       0.62986    0.21441    0.49763    1.000
    Si3157   Si       0.52900    0.05824    0.56381    1.000
    Si3158   Si       0.50169    0.11094    0.53959    1.000
    Si3159   Si       0.60470    0.03022    0.55148    1.000
    N3160    N        0.56168    0.03269    0.53890    1.000
    N3161    N        0.50607    0.09621    0.58253    1.000
    N3162    N        0.50171    0.02993    0.58296    1.000
    N3163    N        0.62071    0.06754    0.56682    1.000
    Si3164   Si       0.71997    0.02189    0.55838    1.000
    Si3165   Si       0.70986    0.12568    0.53354    1.000
    Si3166   Si       0.64440    0.09833    0.54641    1.000
    N3167    N        0.68349    0.10272    0.56406    1.000
    N3168    N        0.67912    0.02993    0.57448    1.000
    N3169    N        0.62126    0.13371    0.54724    1.000
    N3170    N        0.54662    0.23756    0.57490    1.000
    Si3171   Si       0.60193    0.17282    0.55280    1.000
    N3172    N        0.50098    0.19106    0.56500    1.000
    N3173    N        0.60806    0.25118    0.53360    1.000
    N3174    N        0.56859    0.16753    0.58032    1.000
    Si3175   Si       0.56547    0.24516    0.53433    1.000
    N3176    N        0.62715    0.19930    0.57772    1.000
    Si3177   Si       0.64729    0.23552    0.55726    1.000
    N3178    N        0.72592    0.15723    0.55912    1.000
    Si3179   Si       0.60022    0.07474    0.60308    1.000
    Si3180   Si       0.52834    0.08637    0.62020    1.000
    N3181    N        0.55870    0.06666    0.59637    1.000
    N3182    N        0.54590    0.12712    0.63375    1.000
    N3183    N        0.60359    0.05092    0.63843    1.000
    N3184    N        0.61139    0.11544    0.61546    1.000
    Si3185   Si       0.68807    0.06929    0.59245    1.000
    N3186    N        0.66249    0.07720    0.62622    1.000
    Si3187   Si       0.65243    0.11985    0.62898    1.000
    N3188    N        0.71838    0.12050    0.62266    1.000
    N3189    N        0.73038    0.05915    0.59868    1.000
    N3190    N        0.52430    0.19290    0.63121    1.000
    Si3191   Si       0.58151    0.14697    0.61589    1.000
    Si3192   Si       0.53712    0.19668    0.58977    1.000
    N3193    N        0.60161    0.17455    0.64012    1.000
    N3194    N        0.71635    0.25601    0.62942    1.000
    Si3195   Si       0.63625    0.18909    0.61691    1.000
    N3196    N        0.68134    0.22988    0.58607    1.000
    Si3197   Si       0.69625    0.21735    0.62481    1.000
    N3198    N        0.72617    0.18505    0.62393    1.000
    Si3199   Si       0.70830    0.15427    0.59907    1.000
    N3200    N        0.66619    0.15835    0.61079    1.000
    N3201    N        0.53222    0.05791    0.65396    1.000
    N3202    N        0.58002    0.01546    0.69051    1.000
    Si3203   Si       0.56597    0.03272    0.64907    1.000
    Si3204   Si       0.49160    0.05197    0.66575    1.000
    N3205    N        0.71165    0.07660    0.68442    1.000
    Si3206   Si       0.71023    0.11868    0.66426    1.000
    N3207    N        0.64222    0.05255    0.69392    1.000
    Si3208   Si       0.64441    0.04464    0.64992    1.000
    N3209    N        0.66812    0.12771    0.66983    1.000
    Si3210   Si       0.59850    0.17529    0.68398    1.000
    Si3211   Si       0.52808    0.15987    0.65671    1.000
    N3212    N        0.55465    0.17167    0.68815    1.000
    N3213    N        0.49331    0.14381    0.67722    1.000
    N3214    N        0.61290    0.21498    0.69904    1.000
    Si3215   Si       0.72573    0.23239    0.70262    1.000
    Si3216   Si       0.64594    0.23686    0.68166    1.000
    N3217    N        0.73220    0.15082    0.68304    1.000
    N3218    N        0.68316    0.22823    0.70058    1.000
    N3219    N        0.65363    0.21979    0.64289    1.000
    N3220    N        0.59075    0.07858    0.73409    1.000
    Si3221   Si       0.58578    0.12135    0.73791    1.000
    Si3222   Si       0.60514    0.04171    0.71285    1.000
    N3223    N        0.51563    0.02584    0.75265    1.000
    N3224    N        0.61141    0.02215    0.75233    1.000
    N3225    N        0.67263    0.10288    0.73332    1.000
    N3226    N        0.69241    0.03988    0.74325    1.000
    Si3227   Si       0.68053    0.06602    0.71160    1.000
    N3228    N        0.54364    0.13409    0.74163    1.000
    N3229    N        0.57178    0.19680    0.75029    1.000
    N3230    N        0.50297    0.19886    0.72025    1.000
    Si3231   Si       0.58207    0.23334    0.72631    1.000
    Si3232   Si       0.53827    0.17549    0.73023    1.000
    Si3233   Si       0.50283    0.24337    0.71642    1.000
    N3234    N        0.54543    0.25264    0.70634    1.000
    N3235    N        0.61257    0.14142    0.70749    1.000
    Si3236   Si       0.65497    0.13487    0.70959    1.000
    N3237    N        0.73170    0.13585    0.75633    1.000
    N3238    N        0.67769    0.16731    0.72396    1.000
    N3239    N        0.72702    0.20435    0.73757    1.000
    Si3240   Si       0.72068    0.16279    0.72266    1.000
    Si3241   Si       0.68231    0.20701    0.73887    1.000
    N3242    N        0.57090    0.06117    0.80185    1.000
    Si3243   Si       0.53619    0.03538    0.79168    1.000
    Si3244   Si       0.60098    0.06067    0.77215    1.000
    Si3245   Si       0.51145    0.12207    0.76787    1.000
    N3246    N        0.52450    0.11680    0.81066    1.000
    N3247    N        0.50270    0.04802    0.81767    1.000
    N3248    N        0.65915    0.01367    0.79422    1.000
    Si3249   Si       0.62931    0.11793    0.80086    1.000
    N3250    N        0.63774    0.07666    0.78655    1.000
    Si3251   Si       0.67389    0.05145    0.78101    1.000
    N3252    N        0.70381    0.08315    0.79335    1.000
    Si3253   Si       0.69431    0.11855    0.76986    1.000
    N3254    N        0.49439    0.16016    0.77780    1.000
    N3255    N        0.60080    0.13950    0.77405    1.000
    Si3256   Si       0.58651    0.17931    0.78731    1.000
    N3257    N        0.50621    0.23564    0.80845    1.000
    N3258    N        0.57839    0.24546    0.81317    1.000
    Si3259   Si       0.51742    0.15831    0.81703    1.000
    N3260    N        0.55261    0.18211    0.81567    1.000
    Si3261   Si       0.67895    0.25636    0.79459    1.000
    Si3262   Si       0.66452    0.18474    0.80704    1.000
    N3263    N        0.72098    0.25573    0.81187    1.000
    N3264    N        0.67568    0.21545    0.77870    1.000
    N3265    N        0.62194    0.19293    0.81222    1.000
    N3266    N        0.66667    0.14165    0.79447    1.000
    Si3267   Si       0.59824    0.06420    0.83753    1.000
    Si3268   Si       0.50530    0.08664    0.83518    1.000
    N3269    N        0.57619    0.05177    0.87405    1.000
    N3270    N        0.51558    0.08397    0.87686    1.000
    N3271    N        0.61119    0.10780    0.83879    1.000
    Si3272   Si       0.60694    0.01832    0.87997    1.000
    Si3273   Si       0.71650    0.07321    0.83283    1.000
    N3274    N        0.70195    0.03203    0.83683    1.000
    N3275    N        0.62928    0.03359    0.84673    1.000
    N3276    N        0.70768    0.09165    0.87114    1.000
    Si3277   Si       0.66474    0.00924    0.83570    1.000
    Si3278   Si       0.62190    0.12510    0.87733    1.000
    Si3279   Si       0.49910    0.25592    0.86795    1.000
    N3280    N        0.61031    0.23143    0.87469    1.000
    N3281    N        0.53887    0.23872    0.86603    1.000
    Si3282   Si       0.54270    0.22401    0.82682    1.000
    Si3283   Si       0.61452    0.23120    0.83166    1.000
    N3284    N        0.66151    0.14435    0.87661    1.000
    Si3285   Si       0.72608    0.21725    0.83331    1.000
    N3286    N        0.68969    0.19780    0.84072    1.000
    Si3287   Si       0.53608    0.04717    0.89285    1.000
    N3288    N        0.53539    0.04929    0.93521    1.000
    N3289    N        0.51178    0.01282    0.88013    1.000
    N3290    N        0.62497    0.02100    0.91885    1.000
    N3291    N        0.69346    0.12091    0.93215    1.000
    N3292    N        0.63926    0.08851    0.89719    1.000
    Si3293   Si       0.67746    0.10773    0.89556    1.000
    Si3294   Si       0.63593    0.06208    0.93068    1.000
    N3295    N        0.59846    0.14939    0.90236    1.000
    Si3296   Si       0.57144    0.23587    0.89831    1.000
    N3297    N        0.56130    0.20080    0.92218    1.000
    N3298    N        0.66485    0.20261    0.90945    1.000
    Si3299   Si       0.73416    0.13652    0.92981    1.000
    N3300    N        0.72664    0.16493    0.89608    1.000
    Si3301   Si       0.64435    0.23755    0.89873    1.000
    Si3302   Si       0.68719    0.17705    0.88152    1.000
    Si3303   Si       0.56686    0.04590    0.96372    1.000
    Si3304   Si       0.58878    0.10051    0.97888    1.000
    Si3305   Si       0.49812    0.06290    0.95410    1.000
    N3306    N        0.60173    0.07100    0.95257    1.000
    N3307    N        0.49671    0.10339    0.97092    1.000
    N3308    N        0.56538    0.13156    0.95770    1.000
    N3309    N        0.55792    0.07373    0.99679    1.000
    Si3310   Si       0.69300    0.09661    0.96804    1.000
    Si3311   Si       0.68487    0.02362    0.97590    1.000
    N3312    N        0.67014    0.06133    0.95720    1.000
    N3313    N        0.73186    0.08137    0.97100    1.000
    Si3314   Si       0.52614    0.13404    0.98038    1.000
    Si3315   Si       0.53550    0.20284    0.95607    1.000
    N3316    N        0.50896    0.16855    0.96350    1.000
    N3317    N        0.57082    0.19448    0.98277    1.000
    N3318    N        0.51370    0.24217    0.96045    1.000
    Si3319   Si       0.58829    0.16905    0.94278    1.000
    N3320    N        0.68276    0.21850    0.98226    1.000
    N3321    N        0.63043    0.24249    0.93985    1.000
    Si3322   Si       0.71417    0.24798    0.97817    1.000
    Si3323   Si       0.65236    0.20639    0.95246    1.000
    N3324    N        0.63128    0.17124    0.96469    1.000
    Si3325   Si       0.58779    0.28057    0.02141    1.000
    Si3326   Si       0.53346    0.32625    0.02243    1.000
    N3327    N        0.54588    0.28527    0.01326    1.000
    N3328    N        0.49485    0.34464    0.00880    1.000
    N3329    N        0.60851    0.37213    0.04176    1.000
    Si3330   Si       0.59244    0.37329    0.99801    1.000
    N3331    N        0.55682    0.35171    0.99594    1.000
    N3332    N        0.65995    0.32624    0.02195    1.000
    N3333    N        0.71141    0.27932    0.00876    1.000
    Si3334   Si       0.70153    0.31987    0.00590    1.000
    Si3335   Si       0.70850    0.26673    0.04836    1.000
    Si3336   Si       0.62878    0.33179    0.05245    1.000
    N3337    N        0.73665    0.34445    0.00180    1.000
    Si3338   Si       0.52995    0.47844    0.04640    1.000
    N3339    N        0.57629    0.47985    0.03445    1.000
    N3340    N        0.51848    0.46802    0.00430    1.000
    N3341    N        0.59318    0.41788    0.99883    1.000
    Si3342   Si       0.59043    0.50435    0.00227    1.000
    Si3343   Si       0.49500    0.43329    0.99416    1.000
    Si3344   Si       0.62041    0.41513    0.03209    1.000
    N3345    N        0.65851    0.42015    0.01243    1.000
    N3346    N        0.70284    0.47846    0.00851    1.000
    Si3347   Si       0.69897    0.43778    0.02572    1.000
    N3348    N        0.73550    0.41795    0.01175    1.000
    Si3349   Si       0.56745    0.31653    0.08701    1.000
    Si3350   Si       0.51083    0.35801    0.09125    1.000
    N3351    N        0.53177    0.32809    0.06546    1.000
    N3352    N        0.58515    0.35332    0.10446    1.000
    N3353    N        0.59562    0.30555    0.05525    1.000
    N3354    N        0.66741    0.26280    0.11105    1.000
    N3355    N        0.64767    0.33116    0.09169    1.000
    N3356    N        0.71045    0.30080    0.07390    1.000
    Si3357   Si       0.68128    0.30447    0.10456    1.000
    N3358    N        0.73013    0.36985    0.06707    1.000
    Si3359   Si       0.57979    0.38974    0.07806    1.000
    Si3360   Si       0.52423    0.42828    0.10504    1.000
    N3361    N        0.53720    0.39365    0.08120    1.000
    N3362    N        0.54389    0.46043    0.08623    1.000
    Si3363   Si       0.58429    0.46681    0.07442    1.000
    N3364    N        0.60039    0.42705    0.07159    1.000
    N3365    N        0.60608    0.49780    0.09198    1.000
    Si3366   Si       0.68887    0.47249    0.09469    1.000
    N3367    N        0.67138    0.50260    0.06820    1.000
    N3368    N        0.72876    0.48908    0.11030    1.000
    Si3369   Si       0.72344    0.40819    0.08999    1.000
    N3370    N        0.69770    0.43666    0.07005    1.000
    Si3371   Si       0.59215    0.28771    0.15499    1.000
    N3372    N        0.50642    0.35654    0.13429    1.000
    N3373    N        0.56587    0.28648    0.11994    1.000
    Si3374   Si       0.53215    0.38297    0.15897    1.000
    N3375    N        0.62351    0.31776    0.15547    1.000
    Si3376   Si       0.72049    0.35284    0.14425    1.000
    N3377    N        0.68818    0.32511    0.14274    1.000
    Si3378   Si       0.62405    0.34926    0.12440    1.000
    N3379    N        0.58617    0.47637    0.15489    1.000
    N3380    N        0.54353    0.42005    0.14237    1.000
    Si3381   Si       0.57430    0.43676    0.16697    1.000
    Si3382   Si       0.61297    0.50585    0.13543    1.000
    N3383    N        0.67314    0.45550    0.13307    1.000
    N3384    N        0.63815    0.38709    0.13455    1.000
    Si3385   Si       0.67542    0.48465    0.16790    1.000
    N3386    N        0.70843    0.39136    0.12777    1.000
    Si3387   Si       0.67109    0.41294    0.14238    1.000
    N3388    N        0.56591    0.29285    0.19194    1.000
    Si3389   Si       0.55926    0.33293    0.20807    1.000
    N3390    N        0.56367    0.36873    0.18359    1.000
    Si3391   Si       0.53728    0.26490    0.20771    1.000
    N3392    N        0.52252    0.34212    0.22977    1.000
    Si3393   Si       0.49610    0.38224    0.23368    1.000
    N3394    N        0.72641    0.36265    0.18557    1.000
    N3395    N        0.66961    0.27568    0.18654    1.000
    N3396    N        0.66148    0.34574    0.20678    1.000
    Si3397   Si       0.69148    0.37989    0.20502    1.000
    Si3398   Si       0.66211    0.31813    0.17495    1.000
    Si3399   Si       0.65641    0.26426    0.22714    1.000
    Si3400   Si       0.58583    0.38611    0.21781    1.000
    Si3401   Si       0.55814    0.49249    0.18538    1.000
    N3402    N        0.54542    0.45427    0.19772    1.000
    Si3403   Si       0.50548    0.43536    0.19800    1.000
    N3404    N        0.60337    0.41880    0.19361    1.000
    N3405    N        0.49833    0.39239    0.18724    1.000
    N3406    N        0.67314    0.41485    0.18630    1.000
    N3407    N        0.71736    0.48291    0.18221    1.000
    Si3408   Si       0.61957    0.50302    0.22649    1.000
    N3409    N        0.64561    0.47787    0.20184    1.000
    Si3410   Si       0.64236    0.43471    0.20762    1.000
    Si3411   Si       0.73310    0.48441    0.22526    1.000
    Si3412   Si       0.51027    0.32043    0.26533    1.000
    N3413    N        0.58501    0.27271    0.27312    1.000
    N3414    N        0.51709    0.27712    0.24656    1.000
    N3415    N        0.50509    0.37461    0.27712    1.000
    N3416    N        0.59540    0.34433    0.23092    1.000
    N3417    N        0.64606    0.29504    0.25344    1.000
    N3418    N        0.64558    0.36055    0.27599    1.000
    Si3419   Si       0.63563    0.33655    0.24046    1.000
    Si3420   Si       0.56713    0.50135    0.28291    1.000
    Si3421   Si       0.59955    0.43758    0.26666    1.000
    N3422    N        0.57349    0.40504    0.25580    1.000
    Si3423   Si       0.50634    0.45640    0.27327    1.000
    N3424    N        0.59768    0.48014    0.25826    1.000
    N3425    N        0.50111    0.42723    0.24197    1.000
    N3426    N        0.52967    0.49654    0.26223    1.000
    Si3427   Si       0.54086    0.39818    0.28539    1.000
    Si3428   Si       0.66613    0.39963    0.26992    1.000
    N3429    N        0.63947    0.42751    0.25056    1.000
    N3430    N        0.72782    0.45817    0.26256    1.000
    N3431    N        0.70156    0.39427    0.24403    1.000
    Si3432   Si       0.73734    0.41493    0.25511    1.000
    Si3433   Si       0.53803    0.34479    0.33539    1.000
    Si3434   Si       0.55226    0.27539    0.30348    1.000
    N3435    N        0.57888    0.26762    0.33742    1.000
    N3436    N        0.53691    0.31541    0.30136    1.000
    N3437    N        0.55955    0.37858    0.31986    1.000
    N3438    N        0.49596    0.35469    0.33980    1.000
    N3439    N        0.62753    0.31736    0.32138    1.000
    Si3440   Si       0.64756    0.36074    0.32034    1.000
    Si3441   Si       0.62489    0.28779    0.29000    1.000
    N3442    N        0.67666    0.34609    0.34988    1.000
    N3443    N        0.53388    0.43843    0.30082    1.000
    N3444    N        0.60350    0.43524    0.31036    1.000
    Si3445   Si       0.58867    0.40619    0.33729    1.000
    Si3446   Si       0.54144    0.45158    0.34155    1.000
    Si3447   Si       0.60862    0.47523    0.32766    1.000
    N3448    N        0.56619    0.48810    0.33099    1.000
    Si3449   Si       0.72662    0.46873    0.30549    1.000
    Si3450   Si       0.69356    0.42780    0.33974    1.000
    Si3451   Si       0.66342    0.49558    0.34910    1.000
    N3452    N        0.67521    0.40197    0.31084    1.000
    N3453    N        0.68591    0.46760    0.32406    1.000
    N3454    N        0.63565    0.50912    0.31679    1.000
    N3455    N        0.73633    0.43480    0.32958    1.000
    N3456    N        0.62190    0.38098    0.34848    1.000
    Si3457   Si       0.58105    0.29239    0.37279    1.000
    N3458    N        0.55044    0.32563    0.37364    1.000
    N3459    N        0.50487    0.27751    0.40107    1.000
    N3460    N        0.57018    0.26859    0.40783    1.000
    N3461    N        0.49591    0.34832    0.40772    1.000
    N3462    N        0.61901    0.31176    0.38871    1.000
    Si3463   Si       0.64941    0.31295    0.35805    1.000
    Si3464   Si       0.70501    0.36918    0.37031    1.000
    N3465    N        0.67108    0.27600    0.36697    1.000
    Si3466   Si       0.67623    0.26072    0.40768    1.000
    N3467    N        0.56249    0.42295    0.36883    1.000
    Si3468   Si       0.50211    0.46063    0.40609    1.000
    N3469    N        0.50659    0.46227    0.36130    1.000
    Si3470   Si       0.54580    0.42025    0.40854    1.000
    Si3471   Si       0.64438    0.38990    0.38477    1.000
    N3472    N        0.68377    0.41032    0.37814    1.000
    N3473    N        0.63029    0.47091    0.36444    1.000
    Si3474   Si       0.62576    0.45900    0.40352    1.000
    N3475    N        0.53877    0.32501    0.45269    1.000
    Si3476   Si       0.54812    0.36589    0.46390    1.000
    Si3477   Si       0.52630    0.31721    0.41148    1.000
    N3478    N        0.60942    0.29465    0.45434    1.000
    N3479    N        0.61928    0.35904    0.45751    1.000
    Si3480   Si       0.63499    0.32499    0.42760    1.000
    N3481    N        0.67181    0.29649    0.43261    1.000
    Si3482   Si       0.69254    0.36577    0.43922    1.000
    Si3483   Si       0.70240    0.29929    0.46581    1.000
    N3484    N        0.66022    0.35896    0.41101    1.000
    N3485    N        0.72537    0.36370    0.40943    1.000
    N3486    N        0.60690    0.48923    0.43037    1.000
    N3487    N        0.54460    0.46157    0.42225    1.000
    N3488    N        0.56519    0.39573    0.43779    1.000
    Si3489   Si       0.60674    0.40226    0.44980    1.000
    Si3490   Si       0.56470    0.49324    0.44305    1.000
    N3491    N        0.49995    0.41823    0.41354    1.000
    N3492    N        0.66524    0.46897    0.42066    1.000
    Si3493   Si       0.64905    0.50474    0.43886    1.000
    Si3494   Si       0.68794    0.43379    0.41511    1.000
    N3495    N        0.72847    0.45210    0.41224    1.000
    N3496    N        0.69201    0.40862    0.45032    1.000
    N3497    N        0.62460    0.41724    0.41196    1.000
    Si3498   Si       0.72662    0.48322    0.44186    1.000
    Si3499   Si       0.52720    0.30208    0.48735    1.000
    N3500    N        0.55911    0.28083    0.50873    1.000
    Si3501   Si       0.60167    0.27753    0.49549    1.000
    N3502    N        0.56970    0.36675    0.50190    1.000
    N3503    N        0.49502    0.27259    0.48395    1.000
    N3504    N        0.51375    0.32820    0.52061    1.000
    Si3505   Si       0.60915    0.35021    0.49802    1.000
    N3506    N        0.50717    0.38033    0.46905    1.000
    N3507    N        0.61778    0.31298    0.51493    1.000
    Si3508   Si       0.71792    0.35705    0.51013    1.000
    N3509    N        0.69868    0.27057    0.49827    1.000
    N3510    N        0.63574    0.37704    0.52012    1.000
    N3511    N        0.70074    0.34168    0.47297    1.000
    N3512    N        0.50333    0.50052    0.48888    1.000
    N3513    N        0.57079    0.49335    0.48735    1.000
    Si3514   Si       0.61109    0.47651    0.49352    1.000
    Si3515   Si       0.53874    0.50373    0.51390    1.000
    N3516    N        0.61417    0.43146    0.48124    1.000
    Si3517   Si       0.67833    0.47583    0.50662    1.000
    N3518    N        0.72494    0.39947    0.51227    1.000
    N3519    N        0.71022    0.46844    0.47944    1.000
    Si3520   Si       0.62531    0.41851    0.52099    1.000
    N3521    N        0.64772    0.49459    0.48099    1.000
    Si3522   Si       0.71988    0.42552    0.47876    1.000
    N3523    N        0.54816    0.36368    0.56690    1.000
    Si3524   Si       0.54184    0.32203    0.55391    1.000
    N3525    N        0.57641    0.30162    0.57248    1.000
    Si3526   Si       0.61860    0.29997    0.55598    1.000
    Si3527   Si       0.65571    0.36139    0.55331    1.000
    N3528    N        0.65655    0.27929    0.56272    1.000
    N3529    N        0.72253    0.28167    0.56328    1.000
    Si3530   Si       0.69075    0.29310    0.53518    1.000
    N3531    N        0.63022    0.33783    0.57782    1.000
    N3532    N        0.68809    0.33598    0.53749    1.000
    Si3533   Si       0.55505    0.39275    0.53484    1.000
    Si3534   Si       0.58254    0.46314    0.55902    1.000
    Si3535   Si       0.50979    0.44615    0.55613    1.000
    N3536    N        0.54242    0.47498    0.54619    1.000
    N3537    N        0.58744    0.42181    0.54212    1.000
    N3538    N        0.51432    0.41246    0.52870    1.000
    Si3539   Si       0.65086    0.49124    0.56526    1.000
    N3540    N        0.67884    0.38652    0.57868    1.000
    N3541    N        0.68494    0.50275    0.54140    1.000
    N3542    N        0.71879    0.44473    0.56858    1.000
    N3543    N        0.61563    0.48307    0.53687    1.000
    Si3544   Si       0.67923    0.42843    0.56481    1.000
    N3545    N        0.66352    0.43933    0.52622    1.000
    N3546    N        0.57685    0.34583    0.62973    1.000
    N3547    N        0.50769    0.36513    0.62277    1.000
    Si3548   Si       0.57650    0.30378    0.61564    1.000
    Si3549   Si       0.54811    0.37304    0.61123    1.000
    N3550    N        0.54719    0.27511    0.63579    1.000
    Si3551   Si       0.52329    0.26417    0.60049    1.000
    N3552    N        0.61443    0.29148    0.63046    1.000
    N3553    N        0.51561    0.30631    0.58649    1.000
    Si3554   Si       0.70115    0.35736    0.60314    1.000
    N3555    N        0.68373    0.31799    0.61287    1.000
    Si3556   Si       0.64055    0.32259    0.61745    1.000
    Si3557   Si       0.69106    0.27489    0.59580    1.000
    N3558    N        0.70110    0.37728    0.64423    1.000
    Si3559   Si       0.49144    0.40614    0.62102    1.000
    N3560    N        0.51815    0.42941    0.59516    1.000
    N3561    N        0.58717    0.45695    0.60129    1.000
    Si3562   Si       0.55004    0.44399    0.62192    1.000
    N3563    N        0.56087    0.40506    0.63785    1.000
    Si3564   Si       0.58743    0.49842    0.62467    1.000
    N3565    N        0.54695    0.48365    0.64189    1.000
    Si3566   Si       0.72687    0.47255    0.60305    1.000
    N3567    N        0.65434    0.45459    0.58917    1.000
    Si3568   Si       0.62511    0.44452    0.62094    1.000
    N3569    N        0.63369    0.40520    0.64100    1.000
    N3570    N        0.71909    0.45199    0.63915    1.000
    Si3571   Si       0.54528    0.28465    0.67785    1.000
    N3572    N        0.57824    0.31053    0.69008    1.000
    N3573    N        0.50763    0.30576    0.68908    1.000
    N3574    N        0.53022    0.36646    0.69565    1.000
    Si3575   Si       0.59863    0.37834    0.64832    1.000
    Si3576   Si       0.61710    0.30613    0.67135    1.000
    N3577    N        0.63683    0.34426    0.65625    1.000
    N3578    N        0.63971    0.27800    0.69305    1.000
    Si3579   Si       0.66161    0.37989    0.66161    1.000
    N3580    N        0.58994    0.38317    0.69229    1.000
    Si3581   Si       0.53689    0.40299    0.67605    1.000
    N3582    N        0.49901    0.41812    0.66115    1.000
    N3583    N        0.49754    0.48453    0.68687    1.000
    Si3584   Si       0.72749    0.40885    0.64891    1.000
    Si3585   Si       0.63914    0.47459    0.68515    1.000
    Si3586   Si       0.70904    0.47532    0.67370    1.000
    N3587    N        0.67774    0.45118    0.69319    1.000
    N3588    N        0.62079    0.47832    0.64721    1.000
    N3589    N        0.57224    0.34661    0.74923    1.000
    N3590    N        0.49826    0.34139    0.74972    1.000
    N3591    N        0.60162    0.26413    0.75099    1.000
    Si3592   Si       0.49466    0.34302    0.70730    1.000
    Si3593   Si       0.56858    0.34905    0.70576    1.000
    Si3594   Si       0.63970    0.28436    0.73710    1.000
    N3595    N        0.63813    0.32760    0.74204    1.000
    Si3596   Si       0.71242    0.29679    0.73795    1.000
    Si3597   Si       0.67403    0.35212    0.73312    1.000
    N3598    N        0.70938    0.33262    0.71547    1.000
    N3599    N        0.67797    0.27859    0.75601    1.000
    N3600    N        0.73376    0.27296    0.70837    1.000
    Si3601   Si       0.58639    0.41675    0.71989    1.000
    N3602    N        0.52840    0.47608    0.75202    1.000
    Si3603   Si       0.51364    0.45739    0.71547    1.000
    N3604    N        0.54998    0.43470    0.70375    1.000
    N3605    N        0.61928    0.44483    0.71046    1.000
    Si3606   Si       0.65721    0.42353    0.72214    1.000
    N3607    N        0.69171    0.49964    0.74169    1.000
    Si3608   Si       0.73471    0.49503    0.73795    1.000
    N3609    N        0.66261    0.38451    0.70580    1.000
    N3610    N        0.67148    0.43083    0.76258    1.000
    Si3611   Si       0.58042    0.27758    0.78532    1.000
    N3612    N        0.53917    0.28918    0.77775    1.000
    N3613    N        0.52151    0.35090    0.80481    1.000
    N3614    N        0.59648    0.31626    0.80133    1.000
    Si3615   Si       0.49908    0.27576    0.79184    1.000
    Si3616   Si       0.53617    0.33159    0.76716    1.000
    Si3617   Si       0.60917    0.34472    0.77097    1.000
    N3618    N        0.69648    0.36510    0.76744    1.000
    Si3619   Si       0.73667    0.34992    0.77322    1.000
    N3620    N        0.63248    0.37977    0.78253    1.000
    N3621    N        0.64568    0.26100    0.82133    1.000
    N3622    N        0.56842    0.46240    0.80844    1.000
    Si3623   Si       0.60416    0.40900    0.79912    1.000
    N3624    N        0.51538    0.41749    0.78670    1.000
    Si3625   Si       0.54859    0.44539    0.77410    1.000
    Si3626   Si       0.61117    0.47615    0.81879    1.000
    N3627    N        0.58094    0.41938    0.76300    1.000
    Si3628   Si       0.53763    0.39084    0.81630    1.000
    Si3629   Si       0.67238    0.47284    0.77300    1.000
    N3630    N        0.63329    0.48838    0.78205    1.000
    Si3631   Si       0.67381    0.39516    0.78751    1.000
    N3632    N        0.68880    0.46878    0.81426    1.000
    Si3633   Si       0.73453    0.46839    0.81094    1.000
    N3634    N        0.55221    0.33353    0.86347    1.000
    Si3635   Si       0.58963    0.33691    0.83914    1.000
    Si3636   Si       0.51245    0.33161    0.84332    1.000
    N3637    N        0.49501    0.29150    0.84087    1.000
    N3638    N        0.58101    0.37900    0.82150    1.000
    N3639    N        0.73600    0.36786    0.86977    1.000
    N3640    N        0.62129    0.32007    0.86574    1.000
    N3641    N        0.68839    0.31729    0.83929    1.000
    Si3642   Si       0.65420    0.29274    0.85102    1.000
    Si3643   Si       0.71525    0.32991    0.87177    1.000
    N3644    N        0.59961    0.51160    0.83900    1.000
    N3645    N        0.49416    0.46374    0.83411    1.000
    Si3646   Si       0.50500    0.43421    0.86888    1.000
    Si3647   Si       0.53575    0.47994    0.83433    1.000
    N3648    N        0.52604    0.39552    0.85759    1.000
    N3649    N        0.54263    0.46188    0.87304    1.000
    Si3650   Si       0.72973    0.39139    0.83419    1.000
    N3651    N        0.68582    0.39921    0.82880    1.000
    N3652    N        0.62772    0.43572    0.82651    1.000
    Si3653   Si       0.66928    0.43785    0.83854    1.000
    Si3654   Si       0.53461    0.36399    0.88889    1.000
    N3655    N        0.56795    0.26976    0.92576    1.000
    N3656    N        0.54822    0.37417    0.92806    1.000
    N3657    N        0.49652    0.27688    0.90470    1.000
    N3658    N        0.49316    0.34639    0.88794    1.000
    Si3659   Si       0.52712    0.27722    0.93554    1.000
    N3660    N        0.66541    0.27167    0.88686    1.000
    N3661    N        0.63691    0.31012    0.93393    1.000
    N3662    N        0.68505    0.33330    0.90291    1.000
    Si3663   Si       0.64131    0.33992    0.89973    1.000
    Si3664   Si       0.67989    0.29521    0.92504    1.000
    Si3665   Si       0.70124    0.35652    0.93732    1.000
    N3666    N        0.71408    0.26876    0.93991    1.000
    Si3667   Si       0.54475    0.48014    0.91277    1.000
    N3668    N        0.50477    0.42987    0.91319    1.000
    N3669    N        0.50688    0.49732    0.92415    1.000
    Si3670   Si       0.67677    0.48659    0.89473    1.000
    N3671    N        0.63575    0.38276    0.89505    1.000
    N3672    N        0.63261    0.49490    0.90218    1.000
    Si3673   Si       0.65786    0.41476    0.91150    1.000
    N3674    N        0.67185    0.44575    0.88202    1.000
    Si3675   Si       0.52683    0.35949    0.96630    1.000
    N3676    N        0.51843    0.31495    0.95599    1.000
    Si3677   Si       0.60715    0.27867    0.94549    1.000
    N3678    N        0.60952    0.29557    0.98687    1.000
    N3679    N        0.68762    0.32469    0.96488    1.000
    Si3680   Si       0.64328    0.32344    0.97957    1.000
    N3681    N        0.62792    0.36551    0.97553    1.000
    N3682    N        0.51742    0.40250    0.97361    1.000
    Si3683   Si       0.59752    0.44506    0.96475    1.000
    N3684    N        0.56211    0.45154    0.93998    1.000
    Si3685   Si       0.53798    0.41457    0.93675    1.000
    N3686    N        0.61345    0.48263    0.97345    1.000
    N3687    N        0.68464    0.39427    0.94410    1.000
    N3688    N        0.63057    0.42637    0.94291    1.000
    Si3689   Si       0.71263    0.49119    0.96762    1.000
    Si3690   Si       0.63901    0.50055    0.94524    1.000
    Si3691   Si       0.65311    0.40137    0.97228    1.000
    N3692    N        0.68086    0.48583    0.93968    1.000
    Si3693   Si       0.52778    0.62317    0.01065    1.000
    N3694    N        0.52925    0.52288    0.03705    1.000
    N3695    N        0.51501    0.59394    0.03958    1.000
    Si3696   Si       0.60343    0.62259    0.02359    1.000
    N3697    N        0.56915    0.61221    0.99825    1.000
    Si3698   Si       0.51988    0.50991    0.99428    1.000
    N3699    N        0.61765    0.52953    0.02372    1.000
    N3700    N        0.68575    0.54583    0.01354    1.000
    N3701    N        0.63587    0.59388    0.01279    1.000
    Si3702   Si       0.64519    0.55352    0.99993    1.000
    Si3703   Si       0.69952    0.51169    0.03625    1.000
    Si3704   Si       0.52449    0.74743    0.01811    1.000
    N3705    N        0.52695    0.66186    0.02767    1.000
    N3706    N        0.55889    0.72398    0.03641    1.000
    N3707    N        0.60088    0.66582    0.02162    1.000
    Si3708   Si       0.56565    0.68117    0.04204    1.000
    N3709    N        0.48970    0.72310    0.02819    1.000
    Si3710   Si       0.48979    0.68226    0.03750    1.000
    N3711    N        0.66605    0.65714    0.00681    1.000
    Si3712   Si       0.66961    0.72574    0.04952    1.000
    Si3713   Si       0.73862    0.75790    0.02870    1.000
    N3714    N        0.64186    0.72315    0.01707    1.000
    Si3715   Si       0.69414    0.65148    0.04067    1.000
    Si3716   Si       0.63179    0.68596    0.00003    1.000
    N3717    N        0.73938    0.65222    0.03398    1.000
    N3718    N        0.57219    0.56722    0.07460    1.000
    N3719    N        0.50746    0.54815    0.09505    1.000
    Si3720   Si       0.60106    0.57477    0.10421    1.000
    Si3721   Si       0.53253    0.55898    0.05868    1.000
    N3722    N        0.61762    0.62016    0.06639    1.000
    N3723    N        0.63833    0.55999    0.08576    1.000
    Si3724   Si       0.71859    0.59385    0.08868    1.000
    Si3725   Si       0.63089    0.51977    0.06541    1.000
    N3726    N        0.70387    0.55615    0.10698    1.000
    N3727    N        0.68781    0.61074    0.06149    1.000
    Si3728   Si       0.64827    0.59127    0.05652    1.000
    N3729    N        0.73842    0.51842    0.05400    1.000
    Si3730   Si       0.55419    0.74628    0.07320    1.000
    N3731    N        0.57201    0.67079    0.08326    1.000
    Si3732   Si       0.60198    0.64272    0.09774    1.000
    N3733    N        0.53025    0.71906    0.09831    1.000
    Si3734   Si       0.61608    0.74615    0.11082    1.000
    N3735    N        0.68411    0.68541    0.06460    1.000
    N3736    N        0.65012    0.72963    0.08776    1.000
    Si3737   Si       0.66511    0.69038    0.10435    1.000
    N3738    N        0.59458    0.54603    0.13742    1.000
    N3739    N        0.59714    0.61054    0.12752    1.000
    Si3740   Si       0.55909    0.61925    0.14707    1.000
    N3741    N        0.52934    0.61211    0.11679    1.000
    Si3742   Si       0.49689    0.58540    0.11250    1.000
    Si3743   Si       0.62864    0.60939    0.15824    1.000
    Si3744   Si       0.66421    0.55280    0.12202    1.000
    N3745    N        0.66418    0.58924    0.14382    1.000
    Si3746   Si       0.70409    0.60097    0.15669    1.000
    N3747    N        0.65537    0.51735    0.14565    1.000
    N3748    N        0.72259    0.61982    0.12219    1.000
    N3749    N        0.58935    0.71784    0.13193    1.000
    N3750    N        0.56576    0.66323    0.15238    1.000
    Si3751   Si       0.55664    0.69001    0.11903    1.000
    Si3752   Si       0.61095    0.68810    0.15620    1.000
    N3753    N        0.63059    0.66805    0.11705    1.000
    N3754    N        0.69437    0.67918    0.13559    1.000
    Si3755   Si       0.73232    0.66142    0.13266    1.000
    N3756    N        0.64833    0.70868    0.16601    1.000
    N3757    N        0.72799    0.75747    0.14381    1.000
    Si3758   Si       0.55190    0.60848    0.22006    1.000
    N3759    N        0.58529    0.52002    0.20335    1.000
    N3760    N        0.52215    0.51661    0.18706    1.000
    N3761    N        0.55455    0.59125    0.18038    1.000
    Si3762   Si       0.58641    0.55682    0.17780    1.000
    Si3763   Si       0.50766    0.51581    0.23254    1.000
    Si3764   Si       0.49131    0.54834    0.18197    1.000
    Si3765   Si       0.64062    0.57761    0.22993    1.000
    N3766    N        0.73879    0.59064    0.18292    1.000
    N3767    N        0.61990    0.57965    0.19133    1.000
    Si3768   Si       0.68342    0.63086    0.22738    1.000
    N3769    N        0.68291    0.58572    0.23213    1.000
    Si3770   Si       0.55918    0.67704    0.19393    1.000
    N3771    N        0.57458    0.64651    0.22019    1.000
    N3772    N        0.51992    0.68446    0.20390    1.000
    N3773    N        0.59327    0.70251    0.19878    1.000
    Si3774   Si       0.61741    0.65791    0.22213    1.000
    Si3775   Si       0.66920    0.67174    0.17647    1.000
    N3776    N        0.62997    0.64865    0.17834    1.000
    N3777    N        0.69472    0.63528    0.18330    1.000
    Si3778   Si       0.63999    0.75090    0.17763    1.000
    N3779    N        0.66519    0.67347    0.22558    1.000
    N3780    N        0.57292    0.58587    0.25057    1.000
    N3781    N        0.51315    0.62235    0.23561    1.000
    N3782    N        0.68951    0.54694    0.29047    1.000
    N3783    N        0.63793    0.62221    0.24338    1.000
    Si3784   Si       0.70711    0.55800    0.25154    1.000
    N3785    N        0.63918    0.53744    0.24433    1.000
    Si3786   Si       0.64750    0.53861    0.28887    1.000
    N3787    N        0.72306    0.52310    0.23614    1.000
    Si3788   Si       0.64436    0.61372    0.28558    1.000
    Si3789   Si       0.60466    0.72980    0.23294    1.000
    N3790    N        0.61081    0.68413    0.25981    1.000
    Si3791   Si       0.51151    0.66346    0.24166    1.000
    N3792    N        0.57426    0.73593    0.26497    1.000
    N3793    N        0.53059    0.68804    0.27170    1.000
    Si3794   Si       0.57306    0.69558    0.28053    1.000
    Si3795   Si       0.65317    0.69463    0.26170    1.000
    N3796    N        0.72667    0.64597    0.23656    1.000
    N3797    N        0.64624    0.73564    0.25237    1.000
    N3798    N        0.56987    0.61150    0.32031    1.000
    N3799    N        0.50415    0.52224    0.33103    1.000
    Si3800   Si       0.54699    0.52850    0.33849    1.000
    N3801    N        0.49652    0.59392    0.32987    1.000
    N3802    N        0.56638    0.54213    0.29971    1.000
    Si3803   Si       0.53550    0.60075    0.34656    1.000
    Si3804   Si       0.58276    0.58067    0.29254    1.000
    Si3805   Si       0.71683    0.53790    0.32624    1.000
    Si3806   Si       0.72822    0.60558    0.29759    1.000
    N3807    N        0.68723    0.62163    0.29756    1.000
    N3808    N        0.73738    0.57594    0.33318    1.000
    N3809    N        0.62633    0.57773    0.29227    1.000
    N3810    N        0.50705    0.70391    0.34122    1.000
    N3811    N        0.57357    0.68702    0.32498    1.000
    Si3812   Si       0.59101    0.64650    0.33444    1.000
    Si3813   Si       0.50359    0.71143    0.29886    1.000
    N3814    N        0.51291    0.75550    0.29427    1.000
    N3815    N        0.55255    0.75359    0.35379    1.000
    Si3816   Si       0.54694    0.70945    0.35344    1.000
    N3817    N        0.67297    0.69223    0.30151    1.000
    Si3818   Si       0.66882    0.65439    0.32143    1.000
    Si3819   Si       0.67905    0.72704    0.32732    1.000
    N3820    N        0.72251    0.73859    0.32860    1.000
    N3821    N        0.62859    0.64166    0.31472    1.000
    N3822    N        0.54576    0.56126    0.36657    1.000
    Si3823   Si       0.55053    0.56084    0.40955    1.000
    N3824    N        0.71323    0.58007    0.39513    1.000
    N3825    N        0.68946    0.52758    0.36109    1.000
    Si3826   Si       0.68808    0.54464    0.40123    1.000
    N3827    N        0.54016    0.63449    0.37335    1.000
    N3828    N        0.55080    0.69664    0.39431    1.000
    Si3829   Si       0.56653    0.65702    0.39716    1.000
    N3830    N        0.60452    0.65359    0.37616    1.000
    N3831    N        0.65992    0.73439    0.36643    1.000
    Si3832   Si       0.64263    0.64969    0.39537    1.000
    N3833    N        0.71599    0.69967    0.38040    1.000
    Si3834   Si       0.71424    0.65638    0.38331    1.000
    N3835    N        0.67493    0.65174    0.36406    1.000
    Si3836   Si       0.67892    0.71309    0.39949    1.000
    Si3837   Si       0.56070    0.60440    0.44771    1.000
    N3838    N        0.52467    0.59046    0.42843    1.000
    N3839    N        0.54047    0.52807    0.43589    1.000
    N3840    N        0.58786    0.58239    0.42071    1.000
    Si3841   Si       0.49965    0.52255    0.45117    1.000
    N3842    N        0.65452    0.61412    0.41609    1.000
    N3843    N        0.70711    0.52313    0.43773    1.000
    Si3844   Si       0.62886    0.58042    0.43265    1.000
    Si3845   Si       0.69634    0.60680    0.42592    1.000
    N3846    N        0.64837    0.54299    0.41925    1.000
    Si3847   Si       0.72525    0.55427    0.46490    1.000
    N3848    N        0.69698    0.58744    0.46267    1.000
    N3849    N        0.56881    0.64580    0.43903    1.000
    Si3850   Si       0.54512    0.72497    0.42636    1.000
    N3851    N        0.50974    0.73901    0.44707    1.000
    N3852    N        0.56769    0.71237    0.46101    1.000
    Si3853   Si       0.66012    0.66961    0.46251    1.000
    N3854    N        0.65671    0.68270    0.42110    1.000
    N3855    N        0.71902    0.64381    0.42444    1.000
    Si3856   Si       0.71400    0.72800    0.46253    1.000
    N3857    N        0.68520    0.74443    0.43347    1.000
    N3858    N        0.56544    0.59768    0.49051    1.000
    Si3859   Si       0.60388    0.58907    0.51145    1.000
    Si3860   Si       0.53307    0.62534    0.50505    1.000
    N3861    N        0.49687    0.62233    0.47884    1.000
    Si3862   Si       0.66700    0.59583    0.49235    1.000
    N3863    N        0.62943    0.58508    0.47503    1.000
    N3864    N        0.73147    0.54550    0.50788    1.000
    Si3865   Si       0.57713    0.67263    0.47182    1.000
    N3866    N        0.54758    0.66523    0.50450    1.000
    Si3867   Si       0.51654    0.75418    0.48856    1.000
    Si3868   Si       0.63494    0.66151    0.51872    1.000
    N3869    N        0.67075    0.64088    0.49803    1.000
    Si3870   Si       0.70943    0.65962    0.50959    1.000
    N3871    N        0.61978    0.67382    0.47965    1.000
    N3872    N        0.69205    0.69352    0.47845    1.000
    N3873    N        0.51618    0.60657    0.53937    1.000
    Si3874   Si       0.56107    0.55230    0.56536    1.000
    N3875    N        0.59727    0.56558    0.54522    1.000
    N3876    N        0.53295    0.54062    0.53665    1.000
    Si3877   Si       0.49883    0.56627    0.54494    1.000
    N3878    N        0.61308    0.62633    0.53642    1.000
    Si3879   Si       0.62182    0.54832    0.57891    1.000
    Si3880   Si       0.69856    0.54339    0.53814    1.000
    N3881    N        0.71092    0.56832    0.57177    1.000
    Si3882   Si       0.70435    0.60906    0.57505    1.000
    Si3883   Si       0.62051    0.62145    0.57764    1.000
    N3884    N        0.71917    0.62278    0.53555    1.000
    N3885    N        0.66568    0.56766    0.52433    1.000
    N3886    N        0.66298    0.62083    0.58907    1.000
    N3887    N        0.57577    0.70583    0.55230    1.000
    N3888    N        0.51918    0.67011    0.56773    1.000
    Si3889   Si       0.53850    0.69551    0.53695    1.000
    Si3890   Si       0.49373    0.63741    0.55995    1.000
    N3891    N        0.51387    0.73080    0.52671    1.000
    Si3892   Si       0.61288    0.72930    0.55461    1.000
    N3893    N        0.71150    0.68601    0.54373    1.000
    N3894    N        0.64080    0.69764    0.54075    1.000
    Si3895   Si       0.68007    0.71434    0.55476    1.000
    N3896    N        0.68104    0.75064    0.53207    1.000
    Si3897   Si       0.74082    0.66895    0.57189    1.000
    N3898    N        0.54792    0.57418    0.60146    1.000
    Si3899   Si       0.58062    0.57568    0.62794    1.000
    Si3900   Si       0.50901    0.57466    0.62107    1.000
    N3901    N        0.58557    0.52107    0.58679    1.000
    N3902    N        0.61699    0.58343    0.60416    1.000
    Si3903   Si       0.68126    0.52919    0.62748    1.000
    Si3904   Si       0.65326    0.59843    0.62676    1.000
    N3905    N        0.65175    0.52293    0.59617    1.000
    N3906    N        0.68542    0.57137    0.64009    1.000
    N3907    N        0.71895    0.51345    0.61199    1.000
    Si3908   Si       0.50794    0.69334    0.60606    1.000
    N3909    N        0.59729    0.65179    0.59879    1.000
    N3910    N        0.54758    0.71232    0.61403    1.000
    Si3911   Si       0.58153    0.69312    0.59536    1.000
    Si3912   Si       0.54990    0.75358    0.62858    1.000
    Si3913   Si       0.59933    0.64182    0.64220    1.000
    Si3914   Si       0.72260    0.71592    0.61919    1.000
    N3915    N        0.73194    0.63579    0.59729    1.000
    N3916    N        0.61570    0.72161    0.59715    1.000
    Si3917   Si       0.64957    0.73852    0.61766    1.000
    N3918    N        0.68457    0.72402    0.59678    1.000
    Si3919   Si       0.50189    0.57788    0.68304    1.000
    N3920    N        0.57357    0.61009    0.65376    1.000
    N3921    N        0.58918    0.53946    0.65078    1.000
    Si3922   Si       0.59385    0.53382    0.69312    1.000
    N3923    N        0.51145    0.54543    0.65409    1.000
    N3924    N        0.49446    0.60456    0.65127    1.000
    Si3925   Si       0.52946    0.50954    0.66855    1.000
    Si3926   Si       0.57532    0.60498    0.69645    1.000
    N3927    N        0.69869    0.62578    0.67939    1.000
    Si3928   Si       0.70446    0.58084    0.67902    1.000
    N3929    N        0.63826    0.62557    0.65671    1.000
    N3930    N        0.67971    0.50753    0.66764    1.000
    N3931    N        0.54261    0.70579    0.68935    1.000
    Si3932   Si       0.50132    0.69803    0.68356    1.000
    N3933    N        0.60247    0.67809    0.66327    1.000
    N3934    N        0.57991    0.75764    0.66216    1.000
    N3935    N        0.49382    0.67923    0.64478    1.000
    Si3936   Si       0.57534    0.68245    0.69936    1.000
    N3937    N        0.73925    0.74754    0.64385    1.000
    N3938    N        0.65297    0.73375    0.66029    1.000
    Si3939   Si       0.73842    0.72217    0.68111    1.000
    Si3940   Si       0.65996    0.63963    0.69140    1.000
    Si3941   Si       0.72769    0.65477    0.67694    1.000
    N3942    N        0.72149    0.69108    0.65592    1.000
    Si3943   Si       0.63090    0.70621    0.68282    1.000
    N3944    N        0.66069    0.68267    0.70326    1.000
    Si3945   Si       0.54126    0.51694    0.74540    1.000
    Si3946   Si       0.52895    0.58982    0.75127    1.000
    N3947    N        0.53582    0.58951    0.70855    1.000
    N3948    N        0.60461    0.57342    0.70566    1.000
    N3949    N        0.55454    0.51635    0.70312    1.000
    N3950    N        0.49198    0.61104    0.75695    1.000
    Si3951   Si       0.64229    0.58035    0.72629    1.000
    N3952    N        0.64923    0.62064    0.72856    1.000
    Si3953   Si       0.67205    0.52151    0.71038    1.000
    Si3954   Si       0.61969    0.51874    0.75525    1.000
    N3955    N        0.73345    0.59915    0.74760    1.000
    N3956    N        0.67721    0.56355    0.70640    1.000
    N3957    N        0.62974    0.51035    0.71262    1.000
    N3958    N        0.59963    0.71566    0.71463    1.000
    N3959    N        0.57641    0.64534    0.71860    1.000
    Si3960   Si       0.56691    0.74666    0.70120    1.000
    Si3961   Si       0.61421    0.73927    0.74777    1.000
    N3962    N        0.71093    0.74025    0.71016    1.000
    N3963    N        0.73073    0.67787    0.71592    1.000
    Si3964   Si       0.69524    0.69834    0.72706    1.000
    N3965    N        0.65057    0.75501    0.72771    1.000
    N3966    N        0.55828    0.61336    0.77575    1.000
    Si3967   Si       0.50449    0.54791    0.80436    1.000
    N3968    N        0.57845    0.52472    0.76823    1.000
    Si3969   Si       0.57335    0.53285    0.81126    1.000
    N3970    N        0.52020    0.55093    0.76450    1.000
    Si3971   Si       0.55257    0.60428    0.81989    1.000
    N3972    N        0.51213    0.58817    0.81886    1.000
    N3973    N        0.67846    0.61321    0.79169    1.000
    N3974    N        0.70850    0.55655    0.79317    1.000
    Si3975   Si       0.66836    0.56963    0.79175    1.000
    Si3976   Si       0.72467    0.60110    0.78904    1.000
    N3977    N        0.64234    0.55545    0.76300    1.000
    N3978    N        0.56856    0.69291    0.78062    1.000
    Si3979   Si       0.54399    0.72373    0.80500    1.000
    Si3980   Si       0.60924    0.69326    0.80152    1.000
    N3981    N        0.52534    0.75678    0.78294    1.000
    Si3982   Si       0.58068    0.64985    0.76313    1.000
    N3983    N        0.73835    0.64363    0.79467    1.000
    N3984    N        0.72120    0.70742    0.82287    1.000
    N3985    N        0.68529    0.67943    0.76642    1.000
    N3986    N        0.62009    0.65637    0.78196    1.000
    Si3987   Si       0.72238    0.74637    0.80277    1.000
    Si3988   Si       0.65906    0.64185    0.76601    1.000
    Si3989   Si       0.70668    0.67156    0.80202    1.000
    N3990    N        0.62259    0.72978    0.78772    1.000
    Si3991   Si       0.64568    0.75668    0.81427    1.000
    N3992    N        0.58092    0.57342    0.82663    1.000
    N3993    N        0.53279    0.52034    0.82156    1.000
    Si3994   Si       0.61550    0.57733    0.85038    1.000
    N3995    N        0.70450    0.59562    0.85735    1.000
    N3996    N        0.62687    0.61887    0.85363    1.000
    N3997    N        0.65362    0.56737    0.83329    1.000
    Si3998   Si       0.66955    0.61692    0.83678    1.000
    Si3999   Si       0.67553    0.56341    0.87257    1.000
    Si4000   Si       0.73636    0.52192    0.86764    1.000
    N4001    N        0.69238    0.52235    0.87622    1.000
    N4002    N        0.55694    0.64203    0.84123    1.000
    N4003    N        0.56049    0.74430    0.84089    1.000
    Si4004   Si       0.52379    0.66803    0.84667    1.000
    Si4005   Si       0.59669    0.65028    0.85773    1.000
    N4006    N        0.60522    0.69102    0.84253    1.000
    N4007    N        0.51276    0.69863    0.81963    1.000
    Si4008   Si       0.62835    0.70940    0.87292    1.000
    N4009    N        0.65863    0.72839    0.84760    1.000
    N4010    N        0.68007    0.65854    0.83544    1.000
    Si4011   Si       0.68584    0.69471    0.85722    1.000
    N4012    N        0.56720    0.51680    0.90695    1.000
    Si4013   Si       0.60157    0.51912    0.88299    1.000
    N4014    N        0.61960    0.55754    0.88737    1.000
    Si4015   Si       0.69579    0.61117    0.93093    1.000
    Si4016   Si       0.63012    0.57419    0.92591    1.000
    N4017    N        0.67100    0.58279    0.91166    1.000
    N4018    N        0.73579    0.61951    0.91541    1.000
    N4019    N        0.59847    0.72773    0.89872    1.000
    N4020    N        0.59885    0.65855    0.90224    1.000
    N4021    N        0.53020    0.74626    0.90810    1.000
    Si4022   Si       0.55690    0.66700    0.91852    1.000
    N4023    N        0.54111    0.68741    0.88138    1.000
    Si4024   Si       0.55928    0.72716    0.88119    1.000
    Si4025   Si       0.63843    0.66016    0.92602    1.000
    N4026    N        0.69053    0.73479    0.93195    1.000
    N4027    N        0.71968    0.69194    0.88475    1.000
    N4028    N        0.65731    0.68868    0.89497    1.000
    Si4029   Si       0.69589    0.69110    0.92325    1.000
    N4030    N        0.55804    0.52042    0.97663    1.000
    Si4031   Si       0.58194    0.61309    0.95668    1.000
    N4032    N        0.49767    0.62230    0.97806    1.000
    Si4033   Si       0.55510    0.54501    0.93940    1.000
    N4034    N        0.58563    0.57545    0.93880    1.000
    Si4035   Si       0.51079    0.60757    0.93997    1.000
    N4036    N        0.54750    0.62909    0.93522    1.000
    N4037    N        0.51681    0.56437    0.93782    1.000
    N4038    N        0.73011    0.53136    0.96118    1.000
    N4039    N        0.69384    0.59743    0.97274    1.000
    N4040    N        0.64243    0.54289    0.95714    1.000
    Si4041   Si       0.65938    0.62184    0.98189    1.000
    N4042    N        0.62630    0.61919    0.95198    1.000
    Si4043   Si       0.71747    0.56455    0.98761    1.000
    N4044    N        0.52062    0.76076    0.97900    1.000
    N4045    N        0.60315    0.75465    0.95903    1.000
    Si4046   Si       0.52439    0.72895    0.94869    1.000
    Si4047   Si       0.59783    0.71516    0.93890    1.000
    N4048    N        0.55665    0.70037    0.94719    1.000
    N4049    N        0.73432    0.68706    0.94942    1.000
    N4050    N        0.68127    0.65111    0.93897    1.000
    N4051    N        0.62484    0.68754    0.95649    1.000
    Si4052   Si       0.58277    0.85865    0.02431    1.000
    N4053    N        0.50509    0.83683    0.03932    1.000
    Si4054   Si       0.51317    0.85996    0.00306    1.000
    N4055    N        0.53209    0.77640    0.05029    1.000
    N4056    N        0.62164    0.79182    0.01761    1.000
    N4057    N        0.69120    0.82373    0.01939    1.000
    N4058    N        0.62526    0.85823    0.01493    1.000
    Si4059   Si       0.71632    0.85945    0.01807    1.000
    N4060    N        0.69867    0.76041    0.04622    1.000
    N4061    N        0.57275    0.90040    0.03363    1.000
    Si4062   Si       0.56974    0.99222    0.01415    1.000
    N4063    N        0.53817    0.96397    0.02417    1.000
    Si4064   Si       0.54510    0.92479    0.00914    1.000
    Si4065   Si       0.49380    0.96817    0.03326    1.000
    N4066    N        0.50816    0.90306    0.00216    1.000
    Si4067   Si       0.64801    0.89576    0.01848    1.000
    N4068    N        0.61285    0.98668    0.03277    1.000
    N4069    N        0.69049    0.89459    0.02067    1.000
    Si4070   Si       0.71029    0.93097    0.01355    1.000
    N4071    N        0.68429    0.96320    0.02428    1.000
    Si4072   Si       0.64414    0.96686    0.00928    1.000
    Si4073   Si       0.57604    0.84733    0.10078    1.000
    N4074    N        0.53977    0.82622    0.10779    1.000
    Si4075   Si       0.53588    0.81690    0.06276    1.000
    N4076    N        0.59212    0.76643    0.08178    1.000
    N4077    N        0.57960    0.83078    0.05922    1.000
    Si4078   Si       0.61193    0.79943    0.05944    1.000
    N4079    N        0.65068    0.80581    0.07934    1.000
    N4080    N        0.72059    0.82043    0.08099    1.000
    Si4081   Si       0.68914    0.80244    0.05792    1.000
    N4082    N        0.68109    0.87752    0.10006    1.000
    N4083    N        0.57778    0.88994    0.09946    1.000
    N4084    N        0.52779    0.99565    0.10262    1.000
    Si4085   Si       0.56531    0.99365    0.08137    1.000
    N4086    N        0.57547    0.95050    0.08533    1.000
    Si4087   Si       0.59335    0.91489    0.06755    1.000
    Si4088   Si       0.49988    0.96089    0.10664    1.000
    N4089    N        0.63461    0.91296    0.05764    1.000
    N4090    N        0.73306    0.99773    0.05976    1.000
    Si4091   Si       0.66105    0.91321    0.09168    1.000
    N4092    N        0.68389    0.95148    0.09331    1.000
    Si4093   Si       0.69176    0.98289    0.06349    1.000
    Si4094   Si       0.52072    0.81899    0.14736    1.000
    N4095    N        0.51080    0.77579    0.14001    1.000
    N4096    N        0.60899    0.83574    0.12741    1.000
    N4097    N        0.48941    0.85092    0.14272    1.000
    Si4098   Si       0.59776    0.84388    0.16915    1.000
    N4099    N        0.55723    0.82859    0.17374    1.000
    N4100    N        0.68146    0.81693    0.13914    1.000
    N4101    N        0.63029    0.77226    0.14026    1.000
    Si4102   Si       0.64230    0.81063    0.12169    1.000
    Si4103   Si       0.70195    0.78538    0.16179    1.000
    N4104    N        0.73515    0.85859    0.13977    1.000
    Si4105   Si       0.70448    0.84575    0.11249    1.000
    Si4106   Si       0.49365    0.89487    0.13802    1.000
    N4107    N        0.57822    0.94004    0.15861    1.000
    Si4108   Si       0.56462    0.92583    0.11933    1.000
    N4109    N        0.52171    0.92748    0.12291    1.000
    N4110    N        0.63586    0.92353    0.12700    1.000
    Si4111   Si       0.61740    0.92165    0.16613    1.000
    N4112    N        0.64414    0.99680    0.14393    1.000
    Si4113   Si       0.72062    0.00424    0.16366    1.000
    N4114    N        0.70599    0.96436    0.15285    1.000
    Si4115   Si       0.66569    0.95955    0.13805    1.000
    Si4116   Si       0.54552    0.82114    0.21594    1.000
    N4117    N        0.52410    0.85663    0.22539    1.000
    N4118    N        0.60943    0.76458    0.20623    1.000
    Si4119   Si       0.49208    0.85711    0.19265    1.000
    N4120    N        0.49767    0.81362    0.19274    1.000
    Si4121   Si       0.49437    0.78086    0.21822    1.000
    N4122    N        0.53506    0.78167    0.23203    1.000
    N4123    N        0.61290    0.88338    0.18212    1.000
    Si4124   Si       0.61586    0.80360    0.22353    1.000
    N4125    N        0.72861    0.79844    0.19276    1.000
    Si4126   Si       0.64730    0.86538    0.20422    1.000
    Si4127   Si       0.72787    0.87108    0.18105    1.000
    N4128    N        0.62976    0.82607    0.19212    1.000
    N4129    N        0.68735    0.86673    0.19275    1.000
    N4130    N        0.67958    0.76326    0.19100    1.000
    Si4131   Si       0.71201    0.76444    0.21743    1.000
    N4132    N        0.51840    0.97109    0.18986    1.000
    N4133    N        0.58206    0.99160    0.20873    1.000
    Si4134   Si       0.50252    0.93343    0.20577    1.000
    N4135    N        0.49976    0.89931    0.18017    1.000
    Si4136   Si       0.56051    0.97302    0.17709    1.000
    N4137    N        0.65401    0.00228    0.22276    1.000
    N4138    N        0.73600    0.91225    0.19205    1.000
    N4139    N        0.64800    0.94600    0.18199    1.000
    Si4140   Si       0.65135    0.95943    0.22228    1.000
    N4141    N        0.58064    0.82625    0.23930    1.000
    Si4142   Si       0.54821    0.76885    0.27056    1.000
    Si4143   Si       0.57608    0.83651    0.28312    1.000
    N4144    N        0.55536    0.87317    0.28644    1.000
    N4145    N        0.70937    0.76676    0.26187    1.000
    N4146    N        0.64257    0.80326    0.25758    1.000
    N4147    N        0.64166    0.87423    0.24952    1.000
    Si4148   Si       0.64532    0.83954    0.27866    1.000
    Si4149   Si       0.66660    0.77022    0.26949    1.000
    Si4150   Si       0.52361    0.88341    0.25811    1.000
    N4151    N        0.52560    0.99640    0.26017    1.000
    N4152    N        0.52445    0.92450    0.24119    1.000
    Si4153   Si       0.52411    0.95510    0.27369    1.000
    N4154    N        0.59462    0.00339    0.27871    1.000
    Si4155   Si       0.56695    0.00286    0.24690    1.000
    Si4156   Si       0.60140    0.96119    0.28446    1.000
    N4157    N        0.68361    0.93367    0.23919    1.000
    N4158    N        0.62302    0.94375    0.25165    1.000
    Si4159   Si       0.65292    0.91347    0.26373    1.000
    Si4160   Si       0.72321    0.91957    0.23479    1.000
    N4161    N        0.72472    0.89282    0.27066    1.000
    N4162    N        0.69551    0.99907    0.28447    1.000
    Si4163   Si       0.53153    0.78098    0.32770    1.000
    N4164    N        0.55782    0.80011    0.29901    1.000
    N4165    N        0.61187    0.84010    0.30803    1.000
    N4166    N        0.50123    0.80300    0.34952    1.000
    N4167    N        0.66529    0.76461    0.31158    1.000
    Si4168   Si       0.70848    0.82635    0.33098    1.000
    N4169    N        0.68438    0.84108    0.29663    1.000
    Si4170   Si       0.73414    0.76810    0.29708    1.000
    N4171    N        0.71345    0.86871    0.34427    1.000
    Si4172   Si       0.69979    0.88067    0.30260    1.000
    N4173    N        0.48995    0.94857    0.29873    1.000
    N4174    N        0.59395    0.90133    0.33894    1.000
    N4175    N        0.52303    0.90314    0.33761    1.000
    Si4176   Si       0.55960    0.90566    0.31465    1.000
    N4177    N        0.56173    0.94482    0.29187    1.000
    Si4178   Si       0.66167    0.93964    0.33410    1.000
    Si4179   Si       0.71302    0.99581    0.32338    1.000
    N4180    N        0.67026    0.91093    0.30300    1.000
    N4181    N        0.69190    0.96781    0.34585    1.000
    N4182    N        0.62498    0.95922    0.32053    1.000
    Si4183   Si       0.51905    0.82340    0.38498    1.000
    N4184    N        0.56149    0.81789    0.37243    1.000
    Si4185   Si       0.57788    0.77749    0.37912    1.000
    N4186    N        0.49466    0.86039    0.38826    1.000
    Si4187   Si       0.59930    0.83018    0.34944    1.000
    N4188    N        0.61569    0.78864    0.35852    1.000
    N4189    N        0.61948    0.85548    0.37893    1.000
    N4190    N        0.68611    0.80521    0.36097    1.000
    Si4191   Si       0.65469    0.77528    0.35329    1.000
    Si4192   Si       0.68976    0.81346    0.40147    1.000
    N4193    N        0.68310    0.85784    0.40785    1.000
    N4194    N        0.51266    0.93576    0.39989    1.000
    Si4195   Si       0.51750    0.97336    0.37852    1.000
    N4196    N        0.56017    0.96880    0.36393    1.000
    Si4197   Si       0.49996    0.90103    0.37640    1.000
    Si4198   Si       0.58343    0.95305    0.39922    1.000
    Si4199   Si       0.59850    0.98234    0.34715    1.000
    N4200    N        0.59954    0.91274    0.40828    1.000
    N4201    N        0.61821    0.97506    0.38469    1.000
    Si4202   Si       0.61862    0.89890    0.37292    1.000
    Si4203   Si       0.70683    0.95809    0.38599    1.000
    N4204    N        0.65804    0.91386    0.36898    1.000
    Si4205   Si       0.69267    0.88715    0.37681    1.000
    N4206    N        0.72145    0.91751    0.39316    1.000
    Si4207   Si       0.50096    0.81851    0.46021    1.000
    N4208    N        0.50631    0.80255    0.41986    1.000
    N4209    N        0.57302    0.75961    0.41875    1.000
    Si4210   Si       0.58314    0.75210    0.46132    1.000
    N4211    N        0.62009    0.86293    0.45151    1.000
    N4212    N        0.65272    0.80645    0.42300    1.000
    N4213    N        0.72009    0.81452    0.43220    1.000
    Si4214   Si       0.71207    0.85622    0.44120    1.000
    Si4215   Si       0.66178    0.77612    0.45207    1.000
    Si4216   Si       0.64157    0.84742    0.41583    1.000
    N4217    N        0.56242    0.95754    0.43733    1.000
    N4218    N        0.54903    0.89674    0.45363    1.000
    Si4219   Si       0.59314    0.89607    0.44730    1.000
    Si4220   Si       0.52692    0.93197    0.44066    1.000
    N4221    N        0.61113    0.99456    0.44499    1.000
    Si4222   Si       0.64181    0.99599    0.41365    1.000
    N4223    N        0.68041    0.97884    0.41287    1.000
    Si4224   Si       0.70150    0.00502    0.43827    1.000
    Si4225   Si       0.56329    0.81318    0.50451    1.000
    N4226    N        0.55711    0.77150    0.49058    1.000
    N4227    N        0.60602    0.81903    0.50329    1.000
    N4228    N        0.53543    0.83570    0.48125    1.000
    Si4229   Si       0.53274    0.87823    0.48977    1.000
    Si4230   Si       0.63977    0.84668    0.48853    1.000
    Si4231   Si       0.63216    0.78547    0.50828    1.000
    N4232    N        0.66758    0.80523    0.48889    1.000
    Si4233   Si       0.70057    0.78391    0.51108    1.000
    N4234    N        0.72442    0.76420    0.48068    1.000
    N4235    N        0.69275    0.87461    0.47377    1.000
    N4236    N        0.64323    0.87832    0.51758    1.000
    N4237    N        0.62500    0.75909    0.47374    1.000
    N4238    N        0.49781    0.94273    0.47065    1.000
    N4239    N        0.56882    0.96865    0.50574    1.000
    N4240    N        0.60932    0.92608    0.47555    1.000
    Si4241   Si       0.58999    0.96537    0.46920    1.000
    N4242    N        0.50656    0.98424    0.52516    1.000
    N4243    N        0.55357    0.90061    0.52023    1.000
    N4244    N        0.67784    0.93950    0.49876    1.000
    Si4245   Si       0.70817    0.90618    0.50006    1.000
    Si4246   Si       0.63967    0.92117    0.50771    1.000
    N4247    N        0.71222    0.99826    0.52151    1.000
    Si4248   Si       0.68937    0.98008    0.49016    1.000
    N4249    N        0.72541    0.97941    0.46291    1.000
    N4250    N        0.55021    0.82058    0.54685    1.000
    Si4251   Si       0.51100    0.82447    0.56794    1.000
    N4252    N        0.49794    0.78389    0.57998    1.000
    N4253    N        0.62026    0.77219    0.54867    1.000
    Si4254   Si       0.63457    0.80578    0.57342    1.000
    Si4255   Si       0.71273    0.82193    0.57225    1.000
    N4256    N        0.67009    0.82620    0.56329    1.000
    N4257    N        0.72818    0.80561    0.53616    1.000
    Si4258   Si       0.66614    0.87101    0.55346    1.000
    N4259    N        0.55857    0.96108    0.56679    1.000
    Si4260   Si       0.54735    0.99175    0.53511    1.000
    Si4261   Si       0.57459    0.93532    0.53277    1.000
    N4262    N        0.61633    0.93219    0.54318    1.000
    N4263    N        0.61016    0.00208    0.58411    1.000
    N4264    N        0.70433    0.89141    0.54189    1.000
    Si4265   Si       0.73771    0.89178    0.56815    1.000
    Si4266   Si       0.63402    0.93187    0.58247    1.000
    N4267    N        0.56988    0.78192    0.60328    1.000
    N4268    N        0.53224    0.84296    0.60314    1.000
    Si4269   Si       0.60249    0.78275    0.63413    1.000
    Si4270   Si       0.49647    0.86182    0.61935    1.000
    N4271    N        0.61037    0.83718    0.58606    1.000
    Si4272   Si       0.56748    0.82233    0.58914    1.000
    N4273    N        0.66387    0.84372    0.63582    1.000
    Si4274   Si       0.67912    0.80423    0.62812    1.000
    Si4275   Si       0.63088    0.86421    0.61468    1.000
    N4276    N        0.64212    0.78175    0.61417    1.000
    N4277    N        0.71315    0.79391    0.60481    1.000
    N4278    N        0.73375    0.85467    0.58959    1.000
    Si4279   Si       0.58030    0.97543    0.60104    1.000
    N4280    N        0.55966    0.99137    0.63434    1.000
    N4281    N        0.60613    0.94164    0.61475    1.000
    Si4282   Si       0.70968    0.96174    0.59731    1.000
    N4283    N        0.73309    0.92251    0.59648    1.000
    N4284    N        0.73575    0.99398    0.58886    1.000
    N4285    N        0.66793    0.96295    0.58572    1.000
    Si4286   Si       0.65258    0.00286    0.59372    1.000
    N4287    N        0.65788    0.00653    0.63680    1.000
    N4288    N        0.64972    0.89129    0.58811    1.000
    Si4289   Si       0.59897    0.85318    0.67382    1.000
    N4290    N        0.50214    0.87323    0.66345    1.000
    N4291    N        0.59257    0.82039    0.64908    1.000
    N4292    N        0.56769    0.87011    0.69411    1.000
    Si4293   Si       0.49800    0.77160    0.68707    1.000
    N4294    N        0.51391    0.76894    0.64569    1.000
    N4295    N        0.61180    0.88482    0.64785    1.000
    N4296    N        0.67933    0.79315    0.67308    1.000
    Si4297   Si       0.66851    0.83572    0.67979    1.000
    N4298    N        0.69752    0.85821    0.70041    1.000
    Si4299   Si       0.67512    0.75511    0.69106    1.000
    Si4300   Si       0.60845    0.92667    0.65537    1.000
    N4301    N        0.57529    0.93863    0.68444    1.000
    N4302    N        0.52107    0.97647    0.69439    1.000
    Si4303   Si       0.56029    0.97824    0.67863    1.000
    N4304    N        0.69526    0.98828    0.69371    1.000
    N4305    N        0.70651    0.95674    0.64128    1.000
    N4306    N        0.64396    0.94437    0.67525    1.000
    Si4307   Si       0.73388    0.98355    0.67450    1.000
    Si4308   Si       0.67205    0.97391    0.66005    1.000
    Si4309   Si       0.54408    0.78056    0.75247    1.000
    N4310    N        0.52696    0.81823    0.75337    1.000
    N4311    N        0.58531    0.77170    0.73928    1.000
    N4312    N        0.53063    0.76599    0.71299    1.000
    Si4313   Si       0.62445    0.86288    0.73975    1.000
    N4314    N        0.70135    0.80252    0.74622    1.000
    Si4315   Si       0.73129    0.77358    0.73220    1.000
    Si4316   Si       0.70185    0.84509    0.74418    1.000
    N4317    N        0.73721    0.87121    0.75005    1.000
    Si4318   Si       0.66619    0.78049    0.75886    1.000
    N4319    N        0.63269    0.84206    0.70188    1.000
    Si4320   Si       0.57107    0.90780    0.71467    1.000
    Si4321   Si       0.50289    0.91836    0.75423    1.000
    Si4322   Si       0.50322    0.98829    0.73413    1.000
    N4323    N        0.53917    0.89555    0.74734    1.000
    N4324    N        0.51535    0.95928    0.76180    1.000
    Si4325   Si       0.71140    0.99930    0.73329    1.000
    Si4326   Si       0.72306    0.89292    0.71218    1.000
    Si4327   Si       0.64940    0.93012    0.71823    1.000
    N4328    N        0.65045    0.96104    0.74910    1.000
    N4329    N        0.61476    0.90504    0.72709    1.000
    N4330    N        0.69049    0.91614    0.73058    1.000
    N4331    N        0.52531    0.85789    0.80459    1.000
    Si4332   Si       0.61026    0.82963    0.79916    1.000
    N4333    N        0.59088    0.85188    0.76369    1.000
    Si4334   Si       0.54594    0.85691    0.76695    1.000
    N4335    N        0.57439    0.81524    0.82107    1.000
    Si4336   Si       0.66590    0.87476    0.80092    1.000
    N4337    N        0.63544    0.80008    0.78016    1.000
    N4338    N        0.70293    0.85600    0.81393    1.000
    N4339    N        0.68315    0.75886    0.79330    1.000
    N4340    N        0.63094    0.86074    0.82261    1.000
    N4341    N        0.66241    0.86094    0.75974    1.000
    N4342    N        0.55268    0.99815    0.80940    1.000
    Si4343   Si       0.52521    0.96517    0.80182    1.000
    N4344    N        0.71276    0.97483    0.76861    1.000
    N4345    N        0.61558    0.96235    0.80468    1.000
    Si4346   Si       0.68794    0.93837    0.76843    1.000
    N4347    N        0.66616    0.91842    0.80249    1.000
    Si4348   Si       0.63066    0.98932    0.77383    1.000
    N4349    N        0.73693    0.92171    0.79070    1.000
    N4350    N        0.51946    0.81143    0.86106    1.000
    Si4351   Si       0.58405    0.78038    0.84620    1.000
    Si4352   Si       0.54319    0.83853    0.83937    1.000
    N4353    N        0.56611    0.87252    0.85758    1.000
    Si4354   Si       0.61128    0.87271    0.86015    1.000
    N4355    N        0.68884    0.80926    0.86455    1.000
    N4356    N        0.62737    0.78471    0.84231    1.000
    Si4357   Si       0.71711    0.81957    0.83294    1.000
    Si4358   Si       0.64851    0.80633    0.87440    1.000
    N4359    N        0.48883    0.97249    0.82395    1.000
    N4360    N        0.59402    0.97914    0.86910    1.000
    Si4361   Si       0.54178    0.91160    0.86143    1.000
    N4362    N        0.49693    0.91458    0.86322    1.000
    Si4363   Si       0.58062    0.96971    0.82852    1.000
    N4364    N        0.54912    0.93789    0.82785    1.000
    N4365    N        0.66881    0.96762    0.85113    1.000
    Si4366   Si       0.70639    0.94748    0.86293    1.000
    Si4367   Si       0.64140    0.93936    0.83293    1.000
    N4368    N        0.72178    0.90706    0.85699    1.000
    N4369    N        0.62073    0.91602    0.86523    1.000
    N4370    N        0.73582    0.97124    0.84241    1.000
    Si4371   Si       0.73445    0.88967    0.81995    1.000
    Si4372   Si       0.53490    0.78925    0.89547    1.000
    Si4373   Si       0.60222    0.78273    0.92426    1.000
    N4374    N        0.57780    0.79006    0.88832    1.000
    N4375    N        0.51817    0.81039    0.92887    1.000
    Si4376   Si       0.50277    0.85179    0.93206    1.000
    N4377    N        0.53904    0.87304    0.93077    1.000
    N4378    N        0.63292    0.84407    0.88899    1.000
    Si4379   Si       0.71876    0.82341    0.89535    1.000
    N4380    N        0.64452    0.78520    0.91191    1.000
    N4381    N        0.70768    0.86144    0.91117    1.000
    Si4382   Si       0.62930    0.84987    0.93345    1.000
    N4383    N        0.71527    0.80297    0.93219    1.000
    Si4384   Si       0.68042    0.77582    0.93677    1.000
    N4385    N        0.55915    0.92953    0.89773    1.000
    Si4386   Si       0.60026    0.94356    0.89292    1.000
    Si4387   Si       0.53974    0.91901    0.93404    1.000
    N4388    N        0.49681    0.92645    0.93759    1.000
    N4389    N        0.61368    0.95220    0.93312    1.000
    N4390    N        0.70448    0.93893    0.90686    1.000
    Si4391   Si       0.72478    0.90023    0.90010    1.000
    Si4392   Si       0.57302    0.85714    0.95381    1.000
    Si4393   Si       0.49593    0.79658    0.96414    1.000
    N4394    N        0.59624    0.82107    0.94369    1.000
    N4395    N        0.55534    0.85018    0.99362    1.000
    N4396    N        0.60850    0.88447    0.94628    1.000
    N4397    N        0.66597    0.78151    0.97716    1.000
    Si4398   Si       0.70303    0.84272    0.95057    1.000
    N4399    N        0.66115    0.84518    0.96144    1.000
    N4400    N        0.73142    0.86247    0.97734    1.000
    Si4401   Si       0.63240    0.75846    0.99232    1.000
    Si4402   Si       0.65140    0.82195    0.99612    1.000
    N4403    N        0.58142    0.00509    0.97417    1.000
    Si4404   Si       0.60587    0.92299    0.96261    1.000
    N4405    N        0.56435    0.92816    0.97104    1.000
    N4406    N        0.65126    0.99501    0.97545    1.000
    N4407    N        0.63373    0.92899    0.99411    1.000
    Si4408   Si       0.61712    0.99212    0.95045    1.000
    Si4409   Si       0.72397    0.96183    0.93935    1.000
    N4410    N        0.72476    0.93360    0.97236    1.000
    N4411    N        0.71580    0.00280    0.95248    1.000
    N4412    N        0.84092    0.04480    0.03653    1.000
    N4413    N        0.76799    0.04466    0.01406    1.000
    Si4414   Si       0.80128    0.02584    0.03484    1.000
    N4415    N        0.83361    0.11873    0.02315    1.000
    N4416    N        0.76190    0.12582    0.02178    1.000
    Si4417   Si       0.86063    0.08454    0.02663    1.000
    Si4418   Si       0.79956    0.12971    0.99964    1.000
    Si4419   Si       0.97842    0.08461    0.03950    1.000
    N4420    N        0.91169    0.02516    0.03796    1.000
    N4421    N        0.96030    0.06476    0.00733    1.000
    Si4422   Si       0.92135    0.04630    0.00282    1.000
    Si4423   Si       0.86960    0.01394    0.03303    1.000
    N4424    N        0.88526    0.07091    0.99334    1.000
    N4425    N        0.84049    0.21307    0.03557    1.000
    N4426    N        0.90718    0.16764    0.04598    1.000
    N4427    N        0.97551    0.17376    0.04375    1.000
    Si4428   Si       0.90816    0.17856    0.00160    1.000
    Si4429   Si       0.94374    0.14467    0.03603    1.000
    N4430    N        0.92811    0.21709    0.00638    1.000
    Si4431   Si       0.96003    0.21431    0.03724    1.000
    Si4432   Si       0.91359    0.25669    0.99749    1.000
    N4433    N        0.78424    0.03450    0.07598    1.000
    N4434    N        0.80473    0.10560    0.07979    1.000
    Si4435   Si       0.80646    0.06384    0.09860    1.000
    Si4436   Si       0.84682    0.11853    0.07944    1.000
    Si4437   Si       0.77361    0.13162    0.06265    1.000
    Si4438   Si       0.91618    0.10520    0.08909    1.000
    N4439    N        0.88121    0.09513    0.06468    1.000
    N4440    N        0.89818    0.02959    0.10606    1.000
    N4441    N        0.95694    0.01513    0.09431    1.000
    N4442    N        0.94899    0.10904    0.06056    1.000
    N4443    N        0.77899    0.17621    0.06563    1.000
    N4444    N        0.84941    0.16134    0.08193    1.000
    N4445    N        0.82233    0.21758    0.10154    1.000
    Si4446   Si       0.82070    0.18976    0.06668    1.000
    Si4447   Si       0.86010    0.23892    0.10801    1.000
    N4448    N        0.74416    0.24262    0.06026    1.000
    N4449    N        0.74310    0.13041    0.09540    1.000
    Si4450   Si       0.73847    0.19905    0.07092    1.000
    Si4451   Si       0.98759    0.21197    0.10514    1.000
    N4452    N        0.95666    0.22650    0.07771    1.000
    N4453    N        0.89492    0.21310    0.10348    1.000
    Si4454   Si       0.89002    0.17361    0.08581    1.000
    N4455    N        0.91097    0.14394    0.11079    1.000
    Si4456   Si       0.93067    0.23895    0.10978    1.000
    N4457    N        0.78999    0.07584    0.13653    1.000
    Si4458   Si       0.75371    0.06130    0.15117    1.000
    Si4459   Si       0.81379    0.11190    0.14567    1.000
    Si4460   Si       0.82934    0.05296    0.16213    1.000
    N4461    N        0.85112    0.10218    0.12095    1.000
    N4462    N        0.74626    0.02253    0.13450    1.000
    N4463    N        0.83583    0.03703    0.11932    1.000
    Si4464   Si       0.93745    0.03871    0.13045    1.000
    N4465    N        0.91959    0.08427    0.12733    1.000
    N4466    N        0.98024    0.05094    0.14139    1.000
    Si4467   Si       0.92014    0.12508    0.14837    1.000
    Si4468   Si       0.87913    0.06680    0.12301    1.000
    N4469    N        0.93051    0.01308    0.16679    1.000
    N4470    N        0.87280    0.05551    0.16494    1.000
    Si4471   Si       0.78944    0.22820    0.12713    1.000
    Si4472   Si       0.75808    0.15872    0.12699    1.000
    N4473    N        0.79709    0.15054    0.14407    1.000
    N4474    N        0.80138    0.22305    0.16962    1.000
    N4475    N        0.75513    0.20246    0.12047    1.000
    N4476    N        0.85993    0.25364    0.14789    1.000
    Si4477   Si       0.80782    0.17971    0.17603    1.000
    N4478    N        0.95702    0.13405    0.16640    1.000
    Si4479   Si       0.98357    0.16759    0.16903    1.000
    N4480    N        0.96495    0.23558    0.13899    1.000
    N4481    N        0.75054    0.06205    0.19506    1.000
    Si4482   Si       0.78276    0.04322    0.21895    1.000
    N4483    N        0.82576    0.09449    0.18384    1.000
    N4484    N        0.80772    0.02387    0.18652    1.000
    Si4485   Si       0.83534    0.09317    0.22522    1.000
    N4486    N        0.93565    0.07359    0.19901    1.000
    Si4487   Si       0.89149    0.08136    0.19437    1.000
    Si4488   Si       0.96417    0.10596    0.20169    1.000
    Si4489   Si       0.94449    0.03247    0.20062    1.000
    N4490    N        0.89289    0.12420    0.18389    1.000
    N4491    N        0.98504    0.02415    0.20510    1.000
    N4492    N        0.78542    0.17102    0.21107    1.000
    Si4493   Si       0.77372    0.24499    0.19813    1.000
    N4494    N        0.85628    0.24138    0.21819    1.000
    Si4495   Si       0.84533    0.22887    0.17857    1.000
    N4496    N        0.85115    0.18380    0.18033    1.000
    Si4497   Si       0.74113    0.17516    0.20341    1.000
    N4498    N        0.74042    0.21789    0.19697    1.000
    N4499    N        0.84362    0.13627    0.23468    1.000
    Si4500   Si       0.89661    0.23018    0.22537    1.000
    N4501    N        0.89585    0.18496    0.22857    1.000
    Si4502   Si       0.95855    0.23358    0.18209    1.000
    N4503    N        0.96776    0.19594    0.19867    1.000
    N4504    N        0.91605    0.24286    0.18530    1.000
    Si4505   Si       0.87255    0.15526    0.20546    1.000
    N4506    N        0.80157    0.07488    0.24617    1.000
    Si4507   Si       0.78434    0.09199    0.28143    1.000
    N4508    N        0.77709    0.01235    0.24846    1.000
    N4509    N        0.87039    0.00764    0.26715    1.000
    Si4510   Si       0.88645    0.04999    0.26605    1.000
    Si4511   Si       0.93976    0.11251    0.27381    1.000
    N4512    N        0.92553    0.06925    0.27933    1.000
    N4513    N        0.92753    0.02049    0.23935    1.000
    N4514    N        0.95397    0.12888    0.23594    1.000
    Si4515   Si       0.94780    0.03036    0.27617    1.000
    N4516    N        0.87258    0.07294    0.23236    1.000
    N4517    N        0.79367    0.24792    0.23571    1.000
    N4518    N        0.77806    0.13455    0.26920    1.000
    N4519    N        0.81309    0.19220    0.27285    1.000
    Si4520   Si       0.74291    0.15889    0.27351    1.000
    N4521    N        0.74731    0.20254    0.27412    1.000
    Si4522   Si       0.78515    0.22534    0.27243    1.000
    Si4523   Si       0.80682    0.15801    0.24525    1.000
    N4524    N        0.94694    0.19041    0.27014    1.000
    N4525    N        0.91028    0.25362    0.25769    1.000
    Si4526   Si       0.96967    0.17151    0.23700    1.000
    Si4527   Si       0.90657    0.17489    0.26973    1.000
    N4528    N        0.88025    0.19953    0.29282    1.000
    N4529    N        0.80967    0.09720    0.31602    1.000
    Si4530   Si       0.83352    0.06176    0.32605    1.000
    N4531    N        0.81327    0.02850    0.30847    1.000
    N4532    N        0.75371    0.06316    0.29293    1.000
    Si4533   Si       0.77431    0.02384    0.28927    1.000
    Si4534   Si       0.81259    0.13172    0.34131    1.000
    N4535    N        0.87094    0.06232    0.30432    1.000
    Si4536   Si       0.91631    0.06642    0.32522    1.000
    N4537    N        0.96236    0.05913    0.33211    1.000
    N4538    N        0.97398    0.11727    0.29924    1.000
    Si4539   Si       0.99026    0.09214    0.33195    1.000
    Si4540   Si       0.74525    0.25486    0.32881    1.000
    Si4541   Si       0.84061    0.18667    0.30693    1.000
    N4542    N        0.82560    0.21692    0.33437    1.000
    N4543    N        0.85073    0.14769    0.32610    1.000
    N4544    N        0.78292    0.16297    0.33991    1.000
    Si4545   Si       0.84823    0.25361    0.34535    1.000
    Si4546   Si       0.74250    0.14630    0.34447    1.000
    N4547    N        0.90981    0.13713    0.29241    1.000
    Si4548   Si       0.96638    0.20614    0.30616    1.000
    N4549    N        0.93361    0.22960    0.32272    1.000
    Si4550   Si       0.89234    0.13964    0.33417    1.000
    Si4551   Si       0.89947    0.23769    0.29588    1.000
    N4552    N        0.97137    0.18552    0.34527    1.000
    N4553    N        0.84140    0.05165    0.36825    1.000
    Si4554   Si       0.77354    0.09287    0.38480    1.000
    N4555    N        0.77576    0.04972    0.38533    1.000
    N4556    N        0.80519    0.12242    0.38404    1.000
    Si4557   Si       0.81485    0.03685    0.39867    1.000
    N4558    N        0.74700    0.10386    0.35304    1.000
    Si4559   Si       0.74061    0.02479    0.38157    1.000
    N4560    N        0.91225    0.03282    0.35308    1.000
    Si4561   Si       0.87936    0.03779    0.38321    1.000
    Si4562   Si       0.95598    0.03267    0.36968    1.000
    Si4563   Si       0.92210    0.09430    0.39039    1.000
    N4564    N        0.95785    0.06609    0.39931    1.000
    N4565    N        0.90728    0.10167    0.35176    1.000
    N4566    N        0.81129    0.19567    0.39734    1.000
    Si4567   Si       0.79216    0.20033    0.35760    1.000
    N4568    N        0.85906    0.24640    0.38634    1.000
    N4569    N        0.75359    0.22140    0.35522    1.000
    N4570    N        0.93028    0.23094    0.38629    1.000
    Si4571   Si       0.93300    0.19919    0.35919    1.000
    N4572    N        0.90032    0.17073    0.36396    1.000
    Si4573   Si       0.88950    0.16237    0.40502    1.000
    N4574    N        0.83204    0.05238    0.43517    1.000
    N4575    N        0.74982    0.10238    0.42255    1.000
    Si4576   Si       0.87005    0.06337    0.45084    1.000
    Si4577   Si       0.93087    0.04296    0.43316    1.000
    N4578    N        0.89650    0.06526    0.41414    1.000
    N4579    N        0.98046    0.11088    0.44355    1.000
    N4580    N        0.96304    0.03661    0.46425    1.000
    N4581    N        0.89696    0.02932    0.46420    1.000
    N4582    N        0.85339    0.14612    0.42479    1.000
    N4583    N        0.77348    0.16193    0.43932    1.000
    N4584    N        0.84165    0.24403    0.45045    1.000
    Si4585   Si       0.81021    0.15401    0.41498    1.000
    N4586    N        0.77591    0.23123    0.45868    1.000
    Si4587   Si       0.75448    0.25610    0.42979    1.000
    Si4588   Si       0.82282    0.23512    0.41066    1.000
    Si4589   Si       0.73834    0.14368    0.41907    1.000
    Si4590   Si       0.89441    0.23924    0.40890    1.000
    Si4591   Si       0.87622    0.13475    0.46242    1.000
    N4592    N        0.96781    0.17813    0.43505    1.000
    Si4593   Si       0.94909    0.14149    0.44208    1.000
    N4594    N        0.88670    0.20131    0.42873    1.000
    N4595    N        0.92244    0.13318    0.41014    1.000
    Si4596   Si       0.86881    0.20938    0.46779    1.000
    Si4597   Si       0.76787    0.07349    0.51446    1.000
    N4598    N        0.75384    0.04966    0.47647    1.000
    Si4599   Si       0.84690    0.09550    0.52152    1.000
    N4600    N        0.86286    0.09491    0.48169    1.000
    Si4601   Si       0.74760    0.01262    0.49960    1.000
    N4602    N        0.74380    0.10740    0.51616    1.000
    N4603    N        0.80966    0.07269    0.52779    1.000
    Si4604   Si       0.96608    0.05055    0.50394    1.000
    Si4605   Si       0.93506    0.11923    0.50959    1.000
    N4606    N        0.93451    0.07733    0.51739    1.000
    N4607    N        0.91958    0.13347    0.47259    1.000
    N4608    N        0.97701    0.13289    0.50600    1.000
    N4609    N        0.82740    0.22406    0.51206    1.000
    N4610    N        0.78215    0.17661    0.50700    1.000
    Si4611   Si       0.80919    0.24739    0.48207    1.000
    Si4612   Si       0.76353    0.19037    0.47130    1.000
    N4613    N        0.96539    0.25104    0.47617    1.000
    N4614    N        0.86478    0.16987    0.48522    1.000
    N4615    N        0.89351    0.23580    0.49384    1.000
    Si4616   Si       0.98187    0.24306    0.51513    1.000
    Si4617   Si       0.79743    0.03872    0.55635    1.000
    N4618    N        0.75791    0.03650    0.53949    1.000
    Si4619   Si       0.96876    0.04309    0.57631    1.000
    N4620    N        0.96919    0.02140    0.53556    1.000
    N4621    N        0.87283    0.08116    0.55484    1.000
    Si4622   Si       0.90599    0.05671    0.54253    1.000
    N4623    N        0.88875    0.02029    0.52899    1.000
    N4624    N        0.83948    0.13706    0.53613    1.000
    Si4625   Si       0.81686    0.13441    0.57529    1.000
    N4626    N        0.74547    0.22551    0.53917    1.000
    Si4627   Si       0.75735    0.18175    0.54438    1.000
    N4628    N        0.79832    0.17580    0.56880    1.000
    Si4629   Si       0.82109    0.18470    0.53018    1.000
    N4630    N        0.89203    0.24711    0.56734    1.000
    N4631    N        0.97687    0.14658    0.56984    1.000
    Si4632   Si       0.87722    0.16164    0.52674    1.000
    N4633    N        0.86247    0.19627    0.54820    1.000
    N4634    N        0.91391    0.14417    0.53816    1.000
    Si4635   Si       0.86667    0.23739    0.52933    1.000
    Si4636   Si       0.93376    0.15146    0.57542    1.000
    N4637    N        0.97662    0.20180    0.52674    1.000
    N4638    N        0.79683    0.03270    0.60019    1.000
    Si4639   Si       0.75272    0.09506    0.61133    1.000
    Si4640   Si       0.82934    0.02252    0.62593    1.000
    Si4641   Si       0.75512    0.02537    0.61474    1.000
    N4642    N        0.78335    0.10967    0.58530    1.000
    N4643    N        0.84766    0.12732    0.60834    1.000
    N4644    N        0.86374    0.02071    0.60027    1.000
    Si4645   Si       0.87929    0.10122    0.59172    1.000
    N4646    N        0.92065    0.11846    0.59894    1.000
    Si4647   Si       0.90046    0.03684    0.61759    1.000
    N4648    N        0.88784    0.07620    0.62890    1.000
    Si4649   Si       0.92805    0.09797    0.63719    1.000
    N4650    N        0.92586    0.04541    0.58143    1.000
    N4651    N        0.77480    0.23039    0.60208    1.000
    N4652    N        0.84706    0.20543    0.61176    1.000
    Si4653   Si       0.80357    0.19633    0.60560    1.000
    Si4654   Si       0.75794    0.24406    0.64067    1.000
    N4655    N        0.79370    0.16707    0.63686    1.000
    N4656    N        0.91635    0.18456    0.59570    1.000
    Si4657   Si       0.93671    0.20946    0.62369    1.000
    N4658    N        0.97221    0.21876    0.60422    1.000
    N4659    N        0.90015    0.22966    0.63517    1.000
    Si4660   Si       0.88279    0.21056    0.58767    1.000
    N4661    N        0.83440    0.11054    0.67609    1.000
    Si4662   Si       0.80343    0.07951    0.67240    1.000
    Si4663   Si       0.74773    0.05500    0.67974    1.000
    N4664    N        0.83264    0.04964    0.65935    1.000
    N4665    N        0.76726    0.08696    0.65064    1.000
    N4666    N        0.74472    0.02038    0.65492    1.000
    Si4667   Si       0.86316    0.07950    0.66652    1.000
    Si4668   Si       0.95516    0.03098    0.66545    1.000
    N4669    N        0.95753    0.07111    0.65051    1.000
    N4670    N        0.89702    0.08114    0.69475    1.000
    Si4671   Si       0.98751    0.09575    0.67367    1.000
    N4672    N        0.93168    0.13278    0.66534    1.000
    N4673    N        0.92368    0.01123    0.64430    1.000
    N4674    N        0.84707    0.24378    0.67301    1.000
    Si4675   Si       0.75520    0.17585    0.65482    1.000
    N4676    N        0.75486    0.21628    0.67330    1.000
    Si4677   Si       0.83198    0.14369    0.64598    1.000
    N4678    N        0.86062    0.16960    0.66842    1.000
    N4679    N        0.94808    0.19726    0.66401    1.000
    Si4680   Si       0.86527    0.20949    0.65147    1.000
    Si4681   Si       0.96696    0.15872    0.66942    1.000
    Si4682   Si       0.93406    0.22324    0.69513    1.000
    N4683    N        0.79457    0.11406    0.73537    1.000
    N4684    N        0.84757    0.07765    0.73706    1.000
    Si4685   Si       0.80356    0.06924    0.74212    1.000
    Si4686   Si       0.83641    0.11796    0.72192    1.000
    N4687    N        0.81364    0.01446    0.75226    1.000
    N4688    N        0.78170    0.05930    0.70531    1.000
    Si4689   Si       0.96206    0.05972    0.73323    1.000
    Si4690   Si       0.88598    0.05934    0.73116    1.000
    N4691    N        0.96494    0.09906    0.71377    1.000
    N4692    N        0.88281    0.01542    0.72682    1.000
    N4693    N        0.94817    0.02739    0.70799    1.000
    N4694    N        0.92434    0.06536    0.75677    1.000
    Si4695   Si       0.97536    0.13397    0.74160    1.000
    Si4696   Si       0.92496    0.11292    0.70371    1.000
    N4697    N        0.84810    0.15704    0.73714    1.000
    N4698    N        0.83794    0.22878    0.74085    1.000
    N4699    N        0.78558    0.18034    0.75234    1.000
    Si4700   Si       0.82756    0.18999    0.75567    1.000
    Si4701   Si       0.86620    0.24456    0.71314    1.000
    N4702    N        0.90972    0.14300    0.72854    1.000
    N4703    N        0.98281    0.16293    0.70965    1.000
    N4704    N        0.95755    0.22518    0.73198    1.000
    Si4705   Si       0.88060    0.16931    0.70829    1.000
    N4706    N        0.89504    0.21128    0.70625    1.000
    N4707    N        0.80014    0.06580    0.78613    1.000
    Si4708   Si       0.80099    0.02260    0.79189    1.000
    N4709    N        0.76153    0.01215    0.80596    1.000
    N4710    N        0.78641    0.13343    0.80333    1.000
    Si4711   Si       0.79470    0.09496    0.81763    1.000
    Si4712   Si       0.92797    0.07866    0.79800    1.000
    N4713    N        0.89666    0.11104    0.80268    1.000
    N4714    N        0.96531    0.09207    0.81506    1.000
    Si4715   Si       0.98754    0.12712    0.80445    1.000
    N4716    N        0.75336    0.19458    0.80770    1.000
    N4717    N        0.82803    0.19103    0.79885    1.000
    N4718    N        0.77670    0.24758    0.76703    1.000
    Si4719   Si       0.75720    0.20820    0.76776    1.000
    Si4720   Si       0.79197    0.17479    0.81833    1.000
    Si4721   Si       0.77334    0.13865    0.76201    1.000
    Si4722   Si       0.90748    0.14259    0.77306    1.000
    N4723    N        0.90226    0.17800    0.79740    1.000
    N4724    N        0.95319    0.14597    0.77957    1.000
    Si4725   Si       0.94306    0.17758    0.81369    1.000
    N4726    N        0.96218    0.21233    0.79752    1.000
    Si4727   Si       0.95278    0.24568    0.77029    1.000
    N4728    N        0.75986    0.08144    0.84107    1.000
    N4729    N        0.83286    0.09971    0.83756    1.000
    Si4730   Si       0.85083    0.07233    0.86858    1.000
    Si4731   Si       0.74197    0.01469    0.84599    1.000
    N4732    N        0.86407    0.03295    0.85557    1.000
    Si4733   Si       0.98618    0.08002    0.85347    1.000
    Si4734   Si       0.87217    0.11915    0.83786    1.000
    Si4735   Si       0.90612    0.02484    0.85781    1.000
    Si4736   Si       0.96056    0.01525    0.82910    1.000
    N4737    N        0.88961    0.09567    0.86989    1.000
    N4738    N        0.98505    0.03653    0.85567    1.000
    N4739    N        0.92264    0.04289    0.82250    1.000
    N4740    N        0.74928    0.22583    0.86839    1.000
    N4741    N        0.79179    0.17566    0.86206    1.000
    N4742    N        0.85971    0.15841    0.84837    1.000
    N4743    N        0.93983    0.17853    0.85793    1.000
    N4744    N        0.87727    0.22532    0.83911    1.000
    Si4745   Si       0.86633    0.18818    0.81896    1.000
    N4746    N        0.76393    0.10994    0.91231    1.000
    N4747    N        0.82292    0.07267    0.90089    1.000
    Si4748   Si       0.80387    0.10533    0.92401    1.000
    Si4749   Si       0.81951    0.03443    0.91952    1.000
    Si4750   Si       0.74862    0.01788    0.92493    1.000
    N4751    N        0.74679    0.03667    0.88690    1.000
    Si4752   Si       0.74955    0.08072    0.88269    1.000
    Si4753   Si       0.98140    0.12382    0.91618    1.000
    Si4754   Si       0.92305    0.08362    0.89589    1.000
    N4755    N        0.91903    0.03997    0.89769    1.000
    N4756    N        0.96298    0.09625    0.88724    1.000
    Si4757   Si       0.94039    0.02050    0.93012    1.000
    N4758    N        0.82701    0.13953    0.91137    1.000
    Si4759   Si       0.81180    0.22678    0.92526    1.000
    N4760    N        0.77989    0.19692    0.92783    1.000
    N4761    N        0.84000    0.20668    0.89840    1.000
    Si4762   Si       0.76084    0.19003    0.88976    1.000
    Si4763   Si       0.83100    0.16845    0.87899    1.000
    Si4764   Si       0.93835    0.18343    0.90192    1.000
    Si4765   Si       0.93929    0.24210    0.92492    1.000
    Si4766   Si       0.87592    0.22834    0.88336    1.000
    N4767    N        0.90978    0.21618    0.90533    1.000
    N4768    N        0.94686    0.14821    0.92404    1.000
    N4769    N        0.97037    0.21096    0.92086    1.000
    N4770    N        0.79907    0.10087    0.96819    1.000
    Si4771   Si       0.77176    0.06643    0.97574    1.000
    N4772    N        0.78430    0.03768    0.94484    1.000
    N4773    N        0.85803    0.03225    0.93991    1.000
    N4774    N        0.97910    0.03618    0.94687    1.000
    N4775    N        0.91538    0.02284    0.96427    1.000
    Si4776   Si       0.88884    0.06020    0.95067    1.000
    Si4777   Si       0.94097    0.12067    0.95834    1.000
    N4778    N        0.98662    0.10529    0.95598    1.000
    N4779    N        0.91458    0.09170    0.93841    1.000
    Si4780   Si       0.99044    0.06519    0.97522    1.000
    N4781    N        0.73932    0.15974    0.96663    1.000
    N4782    N        0.75423    0.22998    0.98221    1.000
    Si4783   Si       0.83466    0.20215    0.99393    1.000
    Si4784   Si       0.77028    0.19087    0.96865    1.000
    N4785    N        0.82189    0.23470    0.96702    1.000
    N4786    N        0.80195    0.17303    0.99109    1.000
    N4787    N        0.87285    0.18687    0.98133    1.000
    N4788    N        0.93345    0.14394    0.99354    1.000
    N4789    N        0.91335    0.26524    0.95443    1.000
    N4790    N        0.84339    0.32870    0.03232    1.000
    Si4791   Si       0.74596    0.37935    0.02639    1.000
    N4792    N        0.80183    0.26516    0.02926    1.000
    Si4793   Si       0.80866    0.34286    0.05348    1.000
    N4794    N        0.78960    0.38052    0.03368    1.000
    Si4795   Si       0.84385    0.25496    0.03909    1.000
    Si4796   Si       0.86471    0.30910    0.99803    1.000
    N4797    N        0.87277    0.26746    0.00987    1.000
    Si4798   Si       0.93330    0.31970    0.02793    1.000
    N4799    N        0.94346    0.27854    0.02251    1.000
    N4800    N        0.97162    0.33951    0.02734    1.000
    Si4801   Si       0.97379    0.38140    0.01263    1.000
    Si4802   Si       0.98653    0.27290    0.01462    1.000
    N4803    N        0.90380    0.32800    0.99820    1.000
    Si4804   Si       0.77806    0.50614    0.04407    1.000
    N4805    N        0.85232    0.40284    0.00456    1.000
    N4806    N        0.78040    0.48215    0.00786    1.000
    Si4807   Si       0.81006    0.39194    0.99789    1.000
    Si4808   Si       0.89157    0.49351    0.03552    1.000
    N4809    N        0.93103    0.50209    0.05104    1.000
    Si4810   Si       0.86636    0.41696    0.04368    1.000
    Si4811   Si       0.92502    0.43096    0.01043    1.000
    N4812    N        0.93748    0.39484    0.03180    1.000
    N4813    N        0.96042    0.45593    0.00589    1.000
    N4814    N        0.89239    0.44935    0.03023    1.000
    Si4815   Si       0.97031    0.48260    0.04038    1.000
    N4816    N        0.81725    0.36967    0.08674    1.000
    Si4817   Si       0.77726    0.27038    0.06703    1.000
    Si4818   Si       0.85674    0.37230    0.10091    1.000
    N4819    N        0.77779    0.31449    0.06150    1.000
    N4820    N        0.77996    0.26802    0.11212    1.000
    Si4821   Si       0.74207    0.32924    0.08134    1.000
    N4822    N        0.86255    0.27038    0.07677    1.000
    Si4823   Si       0.88917    0.30422    0.08890    1.000
    Si4824   Si       0.92524    0.37382    0.06909    1.000
    N4825    N        0.91677    0.33041    0.06727    1.000
    N4826    N        0.86938    0.33215    0.11562    1.000
    Si4827   Si       0.76564    0.46625    0.10444    1.000
    Si4828   Si       0.83649    0.47220    0.08619    1.000
    Si4829   Si       0.79904    0.40650    0.07306    1.000
    N4830    N        0.76371    0.42475    0.09149    1.000
    N4831    N        0.79463    0.48716    0.08046    1.000
    N4832    N        0.83195    0.43427    0.06430    1.000
    N4833    N        0.86166    0.50082    0.06576    1.000
    N4834    N        0.88438    0.39057    0.07415    1.000
    N4835    N        0.97941    0.45434    0.07235    1.000
    N4836    N        0.95731    0.39239    0.09415    1.000
    Si4837   Si       0.75669    0.28739    0.14293    1.000
    N4838    N        0.74917    0.32775    0.12550    1.000
    Si4839   Si       0.88578    0.35182    0.15265    1.000
    N4840    N        0.92513    0.36734    0.15044    1.000
    Si4841   Si       0.89885    0.27314    0.15786    1.000
    N4842    N        0.91348    0.27862    0.11563    1.000
    Si4843   Si       0.81674    0.46341    0.16091    1.000
    N4844    N        0.84475    0.45826    0.12845    1.000
    N4845    N        0.77734    0.46933    0.14687    1.000
    Si4846   Si       0.74629    0.49636    0.15286    1.000
    N4847    N        0.86142    0.39053    0.13931    1.000
    Si4848   Si       0.83291    0.38589    0.17313    1.000
    Si4849   Si       0.87641    0.43263    0.14300    1.000
    N4850    N        0.95676    0.49631    0.11398    1.000
    N4851    N        0.91755    0.43697    0.12985    1.000
    N4852    N        0.90053    0.49554    0.15827    1.000
    Si4853   Si       0.94332    0.40298    0.13314    1.000
    Si4854   Si       0.93622    0.47254    0.14454    1.000
    N4855    N        0.83351    0.30242    0.21234    1.000
    Si4856   Si       0.79560    0.31951    0.19915    1.000
    Si4857   Si       0.76284    0.37032    0.20543    1.000
    N4858    N        0.77536    0.28621    0.18210    1.000
    N4859    N        0.79780    0.35960    0.18045    1.000
    N4860    N        0.86590    0.36663    0.19655    1.000
    Si4861   Si       0.98569    0.30724    0.21070    1.000
    Si4862   Si       0.87097    0.32630    0.20958    1.000
    Si4863   Si       0.94924    0.37104    0.18764    1.000
    N4864    N        0.98325    0.34374    0.18667    1.000
    N4865    N        0.98407    0.26649    0.19255    1.000
    N4866    N        0.89441    0.31171    0.17497    1.000
    N4867    N        0.76285    0.41083    0.22034    1.000
    N4868    N        0.81912    0.42571    0.18498    1.000
    N4869    N        0.83437    0.49127    0.19022    1.000
    N4870    N        0.77466    0.47720    0.21472    1.000
    Si4871   Si       0.79645    0.43961    0.22093    1.000
    N4872    N        0.95743    0.47623    0.18511    1.000
    N4873    N        0.92618    0.38717    0.21835    1.000
    Si4874   Si       0.96314    0.43791    0.20626    1.000
    N4875    N        0.90208    0.50005    0.22529    1.000
    N4876    N        0.88557    0.43823    0.18713    1.000
    Si4877   Si       0.87691    0.48044    0.19198    1.000
    Si4878   Si       0.88584    0.40237    0.21078    1.000
    N4879    N        0.96328    0.41045    0.17087    1.000
    Si4880   Si       0.78657    0.35632    0.27514    1.000
    N4881    N        0.83396    0.29405    0.27777    1.000
    N4882    N        0.82946    0.36570    0.27426    1.000
    Si4883   Si       0.85567    0.33141    0.28047    1.000
    Si4884   Si       0.83165    0.26926    0.23916    1.000
    N4885    N        0.77389    0.33866    0.23532    1.000
    N4886    N        0.95626    0.31485    0.24203    1.000
    Si4887   Si       0.91978    0.29580    0.25750    1.000
    N4888    N        0.88748    0.32318    0.25050    1.000
    Si4889   Si       0.95706    0.33740    0.27972    1.000
    N4890    N        0.93760    0.37432    0.28622    1.000
    Si4891   Si       0.84442    0.40522    0.27852    1.000
    N4892    N        0.81783    0.43708    0.26052    1.000
    Si4893   Si       0.82548    0.47321    0.28270    1.000
    N4894    N        0.76208    0.39295    0.28343    1.000
    N4895    N        0.86890    0.47337    0.29142    1.000
    Si4896   Si       0.89202    0.50321    0.26756    1.000
    N4897    N        0.94456    0.44096    0.24681    1.000
    N4898    N        0.93113    0.50485    0.28512    1.000
    N4899    N        0.87872    0.40714    0.25316    1.000
    Si4900   Si       0.92302    0.40516    0.26013    1.000
    Si4901   Si       0.94791    0.46204    0.28390    1.000
    Si4902   Si       0.80221    0.29066    0.30910    1.000
    N4903    N        0.78414    0.32959    0.30886    1.000
    Si4904   Si       0.76152    0.33099    0.34654    1.000
    N4905    N        0.81983    0.28670    0.34908    1.000
    N4906    N        0.73922    0.36838    0.34499    1.000
    N4907    N        0.73942    0.29426    0.34959    1.000
    N4908    N        0.77651    0.25870    0.29998    1.000
    Si4909   Si       0.87333    0.37682    0.34367    1.000
    N4910    N        0.88024    0.26880    0.32023    1.000
    N4911    N        0.87538    0.34054    0.31881    1.000
    Si4912   Si       0.90003    0.30713    0.32900    1.000
    N4913    N        0.93255    0.30654    0.29954    1.000
    N4914    N        0.80859    0.47215    0.32212    1.000
    Si4915   Si       0.76198    0.40166    0.32658    1.000
    N4916    N        0.74550    0.50564    0.31737    1.000
    N4917    N        0.79811    0.40768    0.34948    1.000
    Si4918   Si       0.94016    0.39598    0.32596    1.000
    N4919    N        0.90969    0.48228    0.34315    1.000
    N4920    N        0.86242    0.41031    0.31931    1.000
    Si4921   Si       0.88600    0.44862    0.32638    1.000
    N4922    N        0.92637    0.43270    0.30853    1.000
    N4923    N        0.98116    0.39688    0.33603    1.000
    N4924    N        0.78738    0.33989    0.38283    1.000
    Si4925   Si       0.80909    0.30252    0.38865    1.000
    N4926    N        0.85065    0.36849    0.37809    1.000
    Si4927   Si       0.80833    0.37765    0.37875    1.000
    N4928    N        0.78879    0.26895    0.40545    1.000
    N4929    N        0.91716    0.29699    0.36716    1.000
    Si4930   Si       0.92020    0.38100    0.40322    1.000
    Si4931   Si       0.94045    0.25960    0.35454    1.000
    N4932    N        0.98258    0.26993    0.35060    1.000
    Si4933   Si       0.81761    0.44647    0.35744    1.000
    N4934    N        0.79691    0.45777    0.39514    1.000
    N4935    N        0.85951    0.45545    0.36613    1.000
    Si4936   Si       0.79557    0.49937    0.40754    1.000
    Si4937   Si       0.97625    0.49155    0.39170    1.000
    N4938    N        0.91413    0.38524    0.36032    1.000
    N4939    N        0.93131    0.48589    0.40465    1.000
    Si4940   Si       0.89079    0.48394    0.38306    1.000
    N4941    N        0.97287    0.50330    0.35127    1.000
    N4942    N        0.78488    0.34688    0.45736    1.000
    Si4943   Si       0.76590    0.35644    0.41860    1.000
    N4944    N        0.74379    0.29335    0.45057    1.000
    N4945    N        0.85313    0.37829    0.44825    1.000
    N4946    N        0.84345    0.31026    0.41531    1.000
    Si4947   Si       0.86134    0.34955    0.41585    1.000
    Si4948   Si       0.86004    0.28370    0.44583    1.000
    Si4949   Si       0.80983    0.38256    0.45705    1.000
    N4950    N        0.90664    0.34178    0.42179    1.000
    N4951    N        0.90368    0.27445    0.43547    1.000
    N4952    N        0.96685    0.29905    0.41563    1.000
    Si4953   Si       0.92472    0.30398    0.40932    1.000
    N4954    N        0.96213    0.37693    0.41213    1.000
    Si4955   Si       0.98757    0.26833    0.44268    1.000
    Si4956   Si       0.77047    0.43345    0.41863    1.000
    N4957    N        0.79143    0.39393    0.41635    1.000
    N4958    N        0.76896    0.49363    0.44090    1.000
    N4959    N        0.76061    0.43017    0.46225    1.000
    N4960    N        0.90549    0.41338    0.42710    1.000
    Si4961   Si       0.88663    0.39910    0.46548    1.000
    N4962    N        0.94702    0.45186    0.46456    1.000
    N4963    N        0.87672    0.47751    0.43787    1.000
    Si4964   Si       0.91668    0.45601    0.43305    1.000
    Si4965   Si       0.83581    0.31062    0.50737    1.000
    Si4966   Si       0.76921    0.31276    0.47925    1.000
    N4967    N        0.80388    0.28870    0.48863    1.000
    N4968    N        0.75101    0.32808    0.51621    1.000
    N4969    N        0.86421    0.31618    0.47512    1.000
    N4970    N        0.92491    0.30324    0.49472    1.000
    N4971    N        0.91683    0.37397    0.48551    1.000
    Si4972   Si       0.92288    0.26295    0.47619    1.000
    Si4973   Si       0.90531    0.33442    0.47062    1.000
    Si4974   Si       0.79002    0.44150    0.49393    1.000
    N4975    N        0.80754    0.40036    0.49626    1.000
    N4976    N        0.81719    0.46806    0.47695    1.000
    Si4977   Si       0.86149    0.46910    0.47996    1.000
    N4978    N        0.98158    0.41502    0.52399    1.000
    N4979    N        0.87447    0.43038    0.49520    1.000
    Si4980   Si       0.94661    0.38535    0.51913    1.000
    Si4981   Si       0.95147    0.48666    0.49196    1.000
    N4982    N        0.86774    0.50481    0.50409    1.000
    N4983    N        0.78138    0.29291    0.57227    1.000
    Si4984   Si       0.81605    0.32167    0.57656    1.000
    Si4985   Si       0.74766    0.31565    0.55822    1.000
    N4986    N        0.82090    0.33948    0.53677    1.000
    N4987    N        0.85576    0.28100    0.53332    1.000
    Si4988   Si       0.81200    0.37943    0.53629    1.000
    Si4989   Si       0.75815    0.25434    0.56751    1.000
    N4990    N        0.91486    0.31280    0.56647    1.000
    N4991    N        0.96272    0.34687    0.53848    1.000
    Si4992   Si       0.87847    0.28889    0.56731    1.000
    N4993    N        0.96608    0.27064    0.54666    1.000
    Si4994   Si       0.94386    0.30616    0.53463    1.000
    Si4995   Si       0.98598    0.35396    0.57517    1.000
    N4996    N        0.77707    0.39669    0.55571    1.000
    N4997    N        0.84742    0.39868    0.55619    1.000
    Si4998   Si       0.78304    0.48741    0.55867    1.000
    N4999    N        0.82700    0.49363    0.56228    1.000
    Si5000   Si       0.74645    0.42331    0.54353    1.000
    N5001    N        0.77166    0.45773    0.52776    1.000
    N5002    N        0.88532    0.45493    0.56878    1.000
    N5003    N        0.91987    0.40835    0.54372    1.000
    N5004    N        0.93479    0.48619    0.53167    1.000
    Si5005   Si       0.92654    0.45116    0.55696    1.000
    Si5006   Si       0.87731    0.42080    0.53701    1.000
    N5007    N        0.96194    0.45101    0.58128    1.000
    N5008    N        0.85150    0.30653    0.59599    1.000
    N5009    N        0.81046    0.35763    0.59712    1.000
    Si5010   Si       0.77116    0.37502    0.59171    1.000
    Si5011   Si       0.86115    0.32874    0.63267    1.000
    N5012    N        0.73945    0.34803    0.58619    1.000
    N5013    N        0.86614    0.37195    0.63032    1.000
    N5014    N        0.96105    0.34569    0.60956    1.000
    Si5015   Si       0.93076    0.31692    0.60664    1.000
    N5016    N        0.94668    0.27840    0.61411    1.000
    N5017    N        0.90034    0.31089    0.63727    1.000
    Si5018   Si       0.97630    0.26014    0.58809    1.000
    N5019    N        0.85099    0.49163    0.62897    1.000
    N5020    N        0.82536    0.42796    0.61232    1.000
    Si5021   Si       0.78382    0.43996    0.62251    1.000
    N5022    N        0.76240    0.40315    0.62170    1.000
    Si5023   Si       0.84020    0.39008    0.60019    1.000
    N5024    N        0.77008    0.47096    0.59730    1.000
    Si5025   Si       0.86200    0.48662    0.58657    1.000
    Si5026   Si       0.97050    0.46512    0.62086    1.000
    N5027    N        0.83369    0.31885    0.66441    1.000
    Si5028   Si       0.81104    0.34943    0.68808    1.000
    N5029    N        0.76879    0.33727    0.68301    1.000
    Si5030   Si       0.82117    0.27821    0.67276    1.000
    N5031    N        0.78179    0.27784    0.65341    1.000
    Si5032   Si       0.76688    0.29570    0.69124    1.000
    N5033    N        0.94991    0.33553    0.68103    1.000
    Si5034   Si       0.93063    0.37258    0.69430    1.000
    Si5035   Si       0.97162    0.35851    0.65059    1.000
    N5036    N        0.93206    0.26376    0.68040    1.000
    Si5037   Si       0.95623    0.29421    0.69755    1.000
    N5038    N        0.88867    0.37366    0.70041    1.000
    Si5039   Si       0.91367    0.26960    0.64284    1.000
    N5040    N        0.82034    0.39062    0.67800    1.000
    N5041    N        0.74734    0.40515    0.68761    1.000
    Si5042   Si       0.78631    0.49068    0.68656    1.000
    Si5043   Si       0.78935    0.41932    0.69059    1.000
    N5044    N        0.79759    0.45485    0.66402    1.000
    Si5045   Si       0.83934    0.45495    0.64603    1.000
    N5046    N        0.74302    0.48408    0.69634    1.000
    Si5047   Si       0.86334    0.39137    0.66924    1.000
    N5048    N        0.90036    0.49724    0.68978    1.000
    Si5049   Si       0.90594    0.45595    0.67973    1.000
    N5050    N        0.87200    0.43282    0.66467    1.000
    Si5051   Si       0.96471    0.43320    0.67448    1.000
    N5052    N        0.94865    0.39483    0.66452    1.000
    N5053    N        0.94298    0.46717    0.65534    1.000
    Si5054   Si       0.94003    0.50684    0.67441    1.000
    N5055    N        0.82368    0.35061    0.72873    1.000
    N5056    N        0.76119    0.36743    0.74264    1.000
    N5057    N        0.80363    0.28518    0.71317    1.000
    Si5058   Si       0.84989    0.31896    0.74425    1.000
    Si5059   Si       0.81181    0.26472    0.75009    1.000
    Si5060   Si       0.74132    0.36205    0.70406    1.000
    Si5061   Si       0.80124    0.38364    0.74970    1.000
    Si5062   Si       0.89781    0.37406    0.74445    1.000
    N5063    N        0.87251    0.28385    0.72726    1.000
    N5064    N        0.94449    0.29406    0.73827    1.000
    Si5065   Si       0.90540    0.29447    0.75771    1.000
    N5066    N        0.94116    0.37899    0.73688    1.000
    N5067    N        0.88728    0.33660    0.75945    1.000
    Si5068   Si       0.79245    0.45857    0.75645    1.000
    N5069    N        0.79900    0.49100    0.72815    1.000
    N5070    N        0.79858    0.42182    0.73238    1.000
    Si5071   Si       0.91058    0.44501    0.75350    1.000
    Si5072   Si       0.96847    0.41392    0.74332    1.000
    N5073    N        0.92254    0.43814    0.71391    1.000
    N5074    N        0.82938    0.29386    0.77730    1.000
    Si5075   Si       0.75761    0.27463    0.79768    1.000
    N5076    N        0.75358    0.36898    0.80735    1.000
    N5077    N        0.73904    0.30800    0.77380    1.000
    Si5078   Si       0.79687    0.37070    0.81603    1.000
    N5079    N        0.95067    0.32831    0.80367    1.000
    Si5080   Si       0.96980    0.30901    0.77077    1.000
    N5081    N        0.91198    0.25922    0.78181    1.000
    N5082    N        0.98336    0.27054    0.78668    1.000
    N5083    N        0.82250    0.38743    0.78709    1.000
    Si5084   Si       0.81492    0.48852    0.81378    1.000
    N5085    N        0.74987    0.46796    0.76868    1.000
    N5086    N        0.82130    0.45493    0.78701    1.000
    Si5087   Si       0.84984    0.42082    0.79213    1.000
    N5088    N        0.89570    0.48355    0.76795    1.000
    N5089    N        0.98616    0.50019    0.79702    1.000
    Si5090   Si       0.95534    0.46852    0.80598    1.000
    N5091    N        0.94962    0.44206    0.77197    1.000
    N5092    N        0.88422    0.41161    0.76419    1.000
    N5093    N        0.81464    0.33802    0.83712    1.000
    N5094    N        0.78710    0.27541    0.83065    1.000
    Si5095   Si       0.82779    0.36557    0.87251    1.000
    Si5096   Si       0.76888    0.26696    0.86783    1.000
    Si5097   Si       0.82606    0.29704    0.82092    1.000
    N5098    N        0.86591    0.29209    0.83543    1.000
    Si5099   Si       0.96315    0.29211    0.86772    1.000
    N5100    N        0.92498    0.27501    0.85183    1.000
    Si5101   Si       0.95618    0.35497    0.83337    1.000
    N5102    N        0.96310    0.33458    0.87112    1.000
    Si5103   Si       0.89083    0.29643    0.87098    1.000
    N5104    N        0.87005    0.38016    0.87947    1.000
    Si5105   Si       0.89589    0.26074    0.82227    1.000
    N5106    N        0.85721    0.50260    0.82319    1.000
    N5107    N        0.80225    0.39584    0.85348    1.000
    N5108    N        0.80374    0.46797    0.85024    1.000
    Si5109   Si       0.78071    0.43163    0.86072    1.000
    N5110    N        0.74575    0.43277    0.83379    1.000
    Si5111   Si       0.88108    0.47185    0.84414    1.000
    Si5112   Si       0.94434    0.46521    0.86742    1.000
    N5113    N        0.92272    0.48563    0.83434    1.000
    N5114    N        0.92483    0.38236    0.83956    1.000
    N5115    N        0.97247    0.44543    0.83970    1.000
    Si5116   Si       0.89601    0.40813    0.85623    1.000
    N5117    N        0.87244    0.43190    0.82873    1.000
    N5118    N        0.80806    0.35813    0.90822    1.000
    Si5119   Si       0.75404    0.28146    0.92516    1.000
    Si5120   Si       0.76590    0.37736    0.90087    1.000
    N5121    N        0.74197    0.29737    0.88460    1.000
    N5122    N        0.78778    0.26205    0.90727    1.000
    N5123    N        0.74373    0.35609    0.93414    1.000
    N5124    N        0.86936    0.26760    0.89926    1.000
    N5125    N        0.89897    0.32013    0.90488    1.000
    N5126    N        0.96250    0.27437    0.90881    1.000
    Si5127   Si       0.89569    0.36198    0.91085    1.000
    Si5128   Si       0.97650    0.36110    0.90259    1.000
    N5129    N        0.93536    0.37587    0.91815    1.000
    Si5130   Si       0.82039    0.48574    0.88547    1.000
    N5131    N        0.74829    0.49763    0.90138    1.000
    N5132    N        0.76489    0.42098    0.89879    1.000
    N5133    N        0.80164    0.47090    0.92119    1.000
    Si5134   Si       0.75976    0.46029    0.91983    1.000
    N5135    N        0.86272    0.47636    0.88230    1.000
    N5136    N        0.96065    0.49705    0.89276    1.000
    Si5137   Si       0.88736    0.45645    0.91285    1.000
    Si5138   Si       0.94940    0.49038    0.93364    1.000
    N5139    N        0.91423    0.43853    0.88204    1.000
    N5140    N        0.80364    0.35844    0.97269    1.000
    Si5141   Si       0.76598    0.33812    0.96751    1.000
    N5142    N        0.84803    0.30611    0.95750    1.000
    N5143    N        0.77308    0.29521    0.96339    1.000
    Si5144   Si       0.83038    0.34408    0.94271    1.000
    Si5145   Si       0.78884    0.26077    0.98620    1.000
    N5146    N        0.86647    0.36635    0.94459    1.000
    Si5147   Si       0.88289    0.29145    0.93459    1.000
    Si5148   Si       0.82272    0.45346    0.95298    1.000
    N5149    N        0.83650    0.48906    0.97353    1.000
    N5150    N        0.79713    0.42603    0.97490    1.000
    Si5151   Si       0.76011    0.44654    0.99075    1.000
    N5152    N        0.85891    0.43417    0.93656    1.000
    N5153    N        0.73994    0.46184    0.95723    1.000
    N5154    N        0.91316    0.41433    0.97174    1.000
    Si5155   Si       0.98681    0.44419    0.97347    1.000
    N5156    N        0.97888    0.40041    0.97260    1.000
    Si5157   Si       0.94534    0.40873    0.94338    1.000
    N5158    N        0.90459    0.48770    0.93906    1.000
    Si5159   Si       0.87195    0.40488    0.96488    1.000
    N5160    N        0.96231    0.44898    0.93932    1.000
    N5161    N        0.79803    0.53889    0.02587    1.000
    N5162    N        0.79938    0.61280    0.03676    1.000
    Si5163   Si       0.76394    0.62397    0.01320    1.000
    Si5164   Si       0.77940    0.57380    0.04198    1.000
    N5165    N        0.74604    0.58135    0.01603    1.000
    N5166    N        0.96491    0.61531    0.01060    1.000
    Si5167   Si       0.88278    0.56762    0.00248    1.000
    N5168    N        0.88392    0.52141    0.00363    1.000
    N5169    N        0.89261    0.62246    0.00844    1.000
    N5170    N        0.88240    0.57240    0.04844    1.000
    Si5171   Si       0.89454    0.61544    0.05150    1.000
    Si5172   Si       0.97226    0.63019    0.05233    1.000
    Si5173   Si       0.82570    0.64578    0.04746    1.000
    N5174    N        0.75699    0.72167    0.04582    1.000
    N5175    N        0.83938    0.66244    0.00889    1.000
    N5176    N        0.82234    0.73621    0.02140    1.000
    Si5177   Si       0.79329    0.74388    0.05088    1.000
    N5178    N        0.98942    0.67129    0.04745    1.000
    N5179    N        0.89032    0.74155    0.02743    1.000
    Si5180   Si       0.96495    0.70274    0.02943    1.000
    N5181    N        0.98761    0.73741    0.02258    1.000
    N5182    N        0.76095    0.57395    0.08337    1.000
    N5183    N        0.83082    0.55461    0.09890    1.000
    Si5184   Si       0.73792    0.53140    0.09585    1.000
    Si5185   Si       0.79192    0.56605    0.11463    1.000
    Si5186   Si       0.86770    0.54471    0.07902    1.000
    N5187    N        0.96190    0.55694    0.08182    1.000
    Si5188   Si       0.93525    0.52367    0.08731    1.000
    N5189    N        0.90108    0.54026    0.10641    1.000
    Si5190   Si       0.98430    0.58045    0.10784    1.000
    N5191    N        0.93136    0.63402    0.06879    1.000
    N5192    N        0.86222    0.63493    0.07279    1.000
    N5193    N        0.81198    0.74050    0.08811    1.000
    N5194    N        0.75528    0.68049    0.10286    1.000
    N5195    N        0.80189    0.67886    0.06289    1.000
    Si5196   Si       0.79687    0.69939    0.10406    1.000
    Si5197   Si       0.75911    0.68045    0.05883    1.000
    N5198    N        0.88496    0.74380    0.09888    1.000
    Si5199   Si       0.91091    0.74107    0.06558    1.000
    N5200    N        0.93425    0.70602    0.06126    1.000
    Si5201   Si       0.93184    0.67332    0.08977    1.000
    N5202    N        0.97023    0.67238    0.11222    1.000
    N5203    N        0.80031    0.58830    0.14915    1.000
    N5204    N        0.76447    0.53579    0.14086    1.000
    Si5205   Si       0.84501    0.59283    0.16063    1.000
    N5206    N        0.86472    0.55646    0.16805    1.000
    Si5207   Si       0.76986    0.56472    0.17275    1.000
    N5208    N        0.87278    0.62167    0.14440    1.000
    N5209    N        0.96163    0.60130    0.14088    1.000
    Si5210   Si       0.89894    0.53687    0.14950    1.000
    N5211    N        0.78434    0.71444    0.14813    1.000
    N5212    N        0.82443    0.66987    0.12468    1.000
    Si5213   Si       0.79674    0.67462    0.15965    1.000
    N5214    N        0.85756    0.73100    0.16139    1.000
    N5215    N        0.75941    0.65444    0.16869    1.000
    Si5216   Si       0.76132    0.74564    0.16777    1.000
    Si5217   Si       0.86240    0.65291    0.11394    1.000
    N5218    N        0.93333    0.73011    0.14828    1.000
    Si5219   Si       0.89151    0.72026    0.13332    1.000
    Si5220   Si       0.96698    0.70383    0.14462    1.000
    Si5221   Si       0.97969    0.64087    0.14218    1.000
    N5222    N        0.89663    0.68126    0.11502    1.000
    N5223    N        0.96825    0.66975    0.17395    1.000
    N5224    N        0.78800    0.54981    0.20918    1.000
    N5225    N        0.84764    0.61118    0.20114    1.000
    N5226    N        0.78320    0.62275    0.22587    1.000
    Si5227   Si       0.74293    0.63026    0.19915    1.000
    Si5228   Si       0.80549    0.51014    0.21779    1.000
    N5229    N        0.92145    0.60650    0.20688    1.000
    Si5230   Si       0.95130    0.58566    0.17980    1.000
    Si5231   Si       0.88761    0.62688    0.18795    1.000
    Si5232   Si       0.93887    0.51246    0.20352    1.000
    N5233    N        0.93426    0.54643    0.17376    1.000
    N5234    N        0.82189    0.67673    0.19569    1.000
    N5235    N        0.74633    0.73843    0.20945    1.000
    Si5236   Si       0.85813    0.70056    0.19494    1.000
    Si5237   Si       0.82275    0.64023    0.21969    1.000
    N5238    N        0.81277    0.73951    0.23243    1.000
    N5239    N        0.88775    0.66791    0.19775    1.000
    Si5240   Si       0.96815    0.67777    0.21509    1.000
    N5241    N        0.93558    0.70272    0.23006    1.000
    Si5242   Si       0.95379    0.74311    0.22969    1.000
    N5243    N        0.81503    0.58447    0.26531    1.000
    Si5244   Si       0.78065    0.58032    0.23808    1.000
    Si5245   Si       0.83062    0.54678    0.28012    1.000
    Si5246   Si       0.83544    0.61822    0.28352    1.000
    N5247    N        0.74307    0.58297    0.26306    1.000
    N5248    N        0.81528    0.50933    0.26111    1.000
    N5249    N        0.93275    0.58133    0.27248    1.000
    Si5250   Si       0.95320    0.54146    0.26990    1.000
    Si5251   Si       0.93315    0.61755    0.24989    1.000
    N5252    N        0.87611    0.54230    0.27729    1.000
    N5253    N        0.96593    0.53292    0.23020    1.000
    N5254    N        0.83347    0.65410    0.25928    1.000
    Si5255   Si       0.76413    0.64974    0.25637    1.000
    Si5256   Si       0.82481    0.69847    0.25449    1.000
    N5257    N        0.78009    0.68912    0.25360    1.000
    Si5258   Si       0.77106    0.73181    0.24396    1.000
    N5259    N        0.77066    0.74887    0.28392    1.000
    Si5260   Si       0.88329    0.74738    0.25643    1.000
    N5261    N        0.86736    0.70937    0.23814    1.000
    Si5262   Si       0.89815    0.67905    0.23871    1.000
    N5263    N        0.90908    0.64932    0.26866    1.000
    N5264    N        0.96760    0.64284    0.24064    1.000
    N5265    N        0.96716    0.74979    0.27016    1.000
    N5266    N        0.81247    0.54426    0.31899    1.000
    Si5267   Si       0.85522    0.62283    0.34419    1.000
    Si5268   Si       0.78664    0.51025    0.33215    1.000
    N5269    N        0.81666    0.63111    0.32177    1.000
    N5270    N        0.87043    0.60443    0.30445    1.000
    Si5271   Si       0.97923    0.58989    0.31314    1.000
    N5272    N        0.98076    0.54720    0.30402    1.000
    N5273    N        0.94917    0.62242    0.32319    1.000
    N5274    N        0.91269    0.55213    0.33534    1.000
    Si5275   Si       0.93355    0.51391    0.32919    1.000
    Si5276   Si       0.89820    0.57245    0.29912    1.000
    N5277    N        0.75593    0.63756    0.29658    1.000
    N5278    N        0.77430    0.69438    0.33315    1.000
    Si5279   Si       0.79443    0.72854    0.31382    1.000
    Si5280   Si       0.77889    0.65078    0.33433    1.000
    N5281    N        0.83262    0.71398    0.29680    1.000
    N5282    N        0.89056    0.65249    0.34150    1.000
    Si5283   Si       0.92165    0.65499    0.31002    1.000
    N5284    N        0.95059    0.69091    0.31378    1.000
    Si5285   Si       0.94228    0.73382    0.30365    1.000
    N5286    N        0.90081    0.73276    0.29428    1.000
    Si5287   Si       0.86584    0.73223    0.31881    1.000
    N5288    N        0.78874    0.58994    0.38428    1.000
    Si5289   Si       0.74789    0.59430    0.37030    1.000
    N5290    N        0.85448    0.58087    0.36454    1.000
    N5291    N        0.79175    0.52493    0.37285    1.000
    Si5292   Si       0.81517    0.56208    0.35839    1.000
    Si5293   Si       0.81112    0.62754    0.40488    1.000
    N5294    N        0.87317    0.52228    0.39062    1.000
    Si5295   Si       0.89012    0.55826    0.37453    1.000
    Si5296   Si       0.97002    0.62878    0.36220    1.000
    N5297    N        0.92380    0.56363    0.40501    1.000
    N5298    N        0.74818    0.63719    0.36296    1.000
    N5299    N        0.84076    0.64751    0.38061    1.000
    N5300    N        0.77717    0.72759    0.39130    1.000
    Si5301   Si       0.74864    0.71707    0.35928    1.000
    N5302    N        0.85883    0.71534    0.35785    1.000
    N5303    N        0.95025    0.63048    0.40107    1.000
    Si5304   Si       0.86868    0.67743    0.37255    1.000
    N5305    N        0.90081    0.75111    0.40379    1.000
    Si5306   Si       0.86710    0.75411    0.37700    1.000
    N5307    N        0.82415    0.59786    0.43232    1.000
    N5308    N        0.76496    0.56322    0.45042    1.000
    N5309    N        0.81992    0.52644    0.43235    1.000
    Si5310   Si       0.79652    0.56598    0.42145    1.000
    Si5311   Si       0.85910    0.58878    0.45448    1.000
    Si5312   Si       0.86221    0.51874    0.43194    1.000
    Si5313   Si       0.93795    0.52696    0.42407    1.000
    N5314    N        0.89078    0.61391    0.43665    1.000
    N5315    N        0.87519    0.55021    0.45845    1.000
    Si5316   Si       0.93183    0.59959    0.42798    1.000
    N5317    N        0.98045    0.52721    0.41793    1.000
    N5318    N        0.95087    0.59860    0.46792    1.000
    N5319    N        0.78600    0.66130    0.42330    1.000
    Si5320   Si       0.78745    0.70646    0.42684    1.000
    N5321    N        0.82189    0.72349    0.44926    1.000
    N5322    N        0.74898    0.70659    0.44790    1.000
    Si5323   Si       0.74959    0.66048    0.44758    1.000
    Si5324   Si       0.97471    0.74253    0.43391    1.000
    Si5325   Si       0.91350    0.71613    0.42685    1.000
    N5326    N        0.93146    0.66051    0.45664    1.000
    Si5327   Si       0.96304    0.66287    0.42757    1.000
    N5328    N        0.95434    0.70786    0.41853    1.000
    N5329    N        0.88953    0.68270    0.41024    1.000
    Si5330   Si       0.88939    0.65402    0.44327    1.000
    N5331    N        0.80197    0.52881    0.50497    1.000
    N5332    N        0.84530    0.60050    0.49375    1.000
    Si5333   Si       0.76246    0.62732    0.52335    1.000
    Si5334   Si       0.80067    0.50679    0.46754    1.000
    Si5335   Si       0.76949    0.54858    0.52584    1.000
    Si5336   Si       0.89896    0.53268    0.49044    1.000
    N5337    N        0.90276    0.62553    0.51461    1.000
    Si5338   Si       0.99005    0.58705    0.48521    1.000
    N5339    N        0.93253    0.51979    0.46731    1.000
    Si5340   Si       0.86229    0.63866    0.50626    1.000
    N5341    N        0.74895    0.64822    0.48880    1.000
    Si5342   Si       0.85488    0.71037    0.47394    1.000
    N5343    N        0.84595    0.72092    0.51385    1.000
    N5344    N        0.86241    0.66684    0.47394    1.000
    Si5345   Si       0.92273    0.74738    0.49359    1.000
    N5346    N        0.95956    0.66103    0.51627    1.000
    N5347    N        0.95795    0.75783    0.47166    1.000
    Si5348   Si       0.93823    0.63392    0.49056    1.000
    Si5349   Si       0.97560    0.69915    0.52565    1.000
    N5350    N        0.89605    0.72319    0.46701    1.000
    N5351    N        0.84407    0.56091    0.55106    1.000
    N5352    N        0.76455    0.52727    0.56104    1.000
    Si5353   Si       0.82680    0.59456    0.53343    1.000
    Si5354   Si       0.83755    0.52156    0.53065    1.000
    N5355    N        0.78297    0.58996    0.53051    1.000
    Si5356   Si       0.98623    0.56496    0.55006    1.000
    Si5357   Si       0.92748    0.52344    0.55589    1.000
    Si5358   Si       0.91426    0.59375    0.54236    1.000
    N5359    N        0.96140    0.53826    0.57732    1.000
    N5360    N        0.95797    0.59806    0.54216    1.000
    N5361    N        0.89166    0.52057    0.58086    1.000
    N5362    N        0.91490    0.55327    0.52625    1.000
    N5363    N        0.83970    0.63639    0.54400    1.000
    N5364    N        0.77727    0.65674    0.54999    1.000
    Si5365   Si       0.85233    0.72173    0.55829    1.000
    Si5366   Si       0.81486    0.65585    0.57373    1.000
    N5367    N        0.82444    0.69860    0.58180    1.000
    Si5368   Si       0.98400    0.63534    0.54442    1.000
    N5369    N        0.94498    0.73046    0.52664    1.000
    N5370    N        0.89169    0.71360    0.57153    1.000
    Si5371   Si       0.92823    0.73622    0.56581    1.000
    N5372    N        0.84308    0.56142    0.61761    1.000
    N5373    N        0.76183    0.57368    0.61890    1.000
    Si5374   Si       0.76482    0.61752    0.61991    1.000
    Si5375   Si       0.83805    0.60440    0.62968    1.000
    N5376    N        0.80691    0.62953    0.60838    1.000
    Si5377   Si       0.74185    0.54455    0.59379    1.000
    Si5378   Si       0.91033    0.61821    0.61518    1.000
    Si5379   Si       0.97813    0.53635    0.61751    1.000
    N5380    N        0.94710    0.61181    0.64109    1.000
    N5381    N        0.87512    0.62373    0.64092    1.000
    N5382    N        0.99166    0.62596    0.58711    1.000
    Si5383   Si       0.87154    0.55818    0.58396    1.000
    N5384    N        0.89888    0.59089    0.58256    1.000
    Si5385   Si       0.79389    0.72478    0.60195    1.000
    N5386    N        0.75720    0.70059    0.59767    1.000
    N5387    N        0.81844    0.73731    0.63672    1.000
    N5388    N        0.94719    0.71882    0.60363    1.000
    Si5389   Si       0.96663    0.64418    0.61923    1.000
    Si5390   Si       0.91206    0.69251    0.60547    1.000
    N5391    N        0.92830    0.65407    0.60038    1.000
    Si5392   Si       0.98634    0.71431    0.61595    1.000
    N5393    N        0.88745    0.69450    0.64050    1.000
    N5394    N        0.81283    0.59677    0.66788    1.000
    N5395    N        0.79747    0.52636    0.66422    1.000
    Si5396   Si       0.77749    0.56584    0.65917    1.000
    N5397    N        0.85504    0.54416    0.68372    1.000
    N5398    N        0.74478    0.56783    0.68517    1.000
    Si5399   Si       0.83650    0.52924    0.64627    1.000
    Si5400   Si       0.96451    0.57807    0.66206    1.000
    N5401    N        0.94497    0.53985    0.64773    1.000
    Si5402   Si       0.80144    0.63880    0.67729    1.000
    N5403    N        0.76232    0.63790    0.65894    1.000
    N5404    N        0.85505    0.72348    0.69618    1.000
    N5405    N        0.78015    0.71252    0.69280    1.000
    N5406    N        0.82990    0.66793    0.66903    1.000
    Si5407   Si       0.82050    0.71024    0.67191    1.000
    Si5408   Si       0.88670    0.73117    0.66718    1.000
    N5409    N        0.92714    0.72974    0.68637    1.000
    Si5410   Si       0.87550    0.66158    0.66423    1.000
    N5411    N        0.90100    0.66287    0.70130    1.000
    N5412    N        0.80043    0.56501    0.72689    1.000
    Si5413   Si       0.80722    0.52745    0.74976    1.000
    Si5414   Si       0.75725    0.57003    0.72658    1.000
    N5415    N        0.85310    0.52984    0.74819    1.000
    N5416    N        0.85187    0.60747    0.72560    1.000
    N5417    N        0.75139    0.53296    0.75019    1.000
    Si5418   Si       0.83265    0.57724    0.70297    1.000
    N5419    N        0.91282    0.55183    0.72804    1.000
    Si5420   Si       0.95550    0.54898    0.72963    1.000
    Si5421   Si       0.88066    0.52606    0.71498    1.000
    N5422    N        0.96841    0.51413    0.70705    1.000
    N5423    N        0.97180    0.58085    0.70319    1.000
    Si5424   Si       0.82565    0.63304    0.75040    1.000
    N5425    N        0.81499    0.75448    0.74300    1.000
    Si5426   Si       0.85636    0.74216    0.73622    1.000
    N5427    N        0.79216    0.64290    0.72195    1.000
    Si5428   Si       0.77112    0.68217    0.72642    1.000
    N5429    N        0.85752    0.66040    0.75940    1.000
    Si5430   Si       0.92978    0.75357    0.72712    1.000
    Si5431   Si       0.88349    0.63675    0.73185    1.000
    N5432    N        0.94722    0.71427    0.74284    1.000
    Si5433   Si       0.99046    0.69855    0.73691    1.000
    Si5434   Si       0.93491    0.68930    0.70712    1.000
    N5435    N        0.97596    0.67728    0.70080    1.000
    N5436    N        0.76303    0.58136    0.80278    1.000
    Si5437   Si       0.75339    0.53873    0.79404    1.000
    N5438    N        0.79860    0.52182    0.79196    1.000
    N5439    N        0.80695    0.63085    0.78991    1.000
    Si5440   Si       0.79720    0.59958    0.81736    1.000
    N5441    N        0.89669    0.54629    0.79815    1.000
    N5442    N        0.95649    0.55935    0.77167    1.000
    Si5443   Si       0.97641    0.54207    0.80638    1.000
    N5444    N        0.95191    0.61695    0.81192    1.000
    Si5445   Si       0.91322    0.57134    0.76792    1.000
    Si5446   Si       0.87219    0.51444    0.78387    1.000
    N5447    N        0.90719    0.61370    0.76093    1.000
    Si5448   Si       0.77701    0.66211    0.79525    1.000
    N5449    N        0.80366    0.74309    0.81166    1.000
    Si5450   Si       0.78688    0.73658    0.77173    1.000
    N5451    N        0.77975    0.69390    0.76577    1.000
    N5452    N        0.74688    0.75144    0.76684    1.000
    Si5453   Si       0.84439    0.73224    0.81471    1.000
    N5454    N        0.86456    0.72678    0.77617    1.000
    Si5455   Si       0.87558    0.68744    0.78625    1.000
    N5456    N        0.96229    0.73838    0.81215    1.000
    N5457    N        0.91778    0.67773    0.79223    1.000
    Si5458   Si       0.91558    0.63295    0.79766    1.000
    Si5459   Si       0.95053    0.70378    0.78484    1.000
    N5460    N        0.77986    0.61078    0.85884    1.000
    Si5461   Si       0.85069    0.53954    0.84705    1.000
    N5462    N        0.82648    0.57386    0.83734    1.000
    N5463    N        0.74519    0.50715    0.82728    1.000
    Si5464   Si       0.80031    0.56863    0.87673    1.000
    N5465    N        0.88798    0.54076    0.86742    1.000
    N5466    N        0.95383    0.54688    0.84197    1.000
    Si5467   Si       0.91555    0.52934    0.83445    1.000
    N5468    N        0.89029    0.62992    0.83074    1.000
    N5469    N        0.86527    0.75564    0.84324    1.000
    Si5470   Si       0.74919    0.70474    0.85575    1.000
    N5471    N        0.77085    0.74009    0.86470    1.000
    Si5472   Si       0.79448    0.65033    0.87058    1.000
    N5473    N        0.77774    0.67517    0.83813    1.000
    N5474    N        0.85761    0.69031    0.82639    1.000
    N5475    N        0.83738    0.64347    0.87501    1.000
    Si5476   Si       0.96680    0.64097    0.84795    1.000
    Si5477   Si       0.87083    0.65863    0.85436    1.000
    N5478    N        0.95886    0.68339    0.85302    1.000
    Si5479   Si       0.98336    0.72071    0.84536    1.000
    Si5480   Si       0.84711    0.62073    0.91168    1.000
    N5481    N        0.81928    0.58770    0.91210    1.000
    N5482    N        0.75772    0.55700    0.88760    1.000
    Si5483   Si       0.75828    0.53276    0.92600    1.000
    Si5484   Si       0.74258    0.59841    0.87842    1.000
    N5485    N        0.81768    0.52809    0.87704    1.000
    Si5486   Si       0.89264    0.55801    0.90642    1.000
    N5487    N        0.93643    0.55578    0.91258    1.000
    N5488    N        0.88586    0.60057    0.91028    1.000
    N5489    N        0.95258    0.62020    0.88430    1.000
    Si5490   Si       0.96572    0.53976    0.88298    1.000
    Si5491   Si       0.98353    0.60130    0.90917    1.000
    Si5492   Si       0.91852    0.63080    0.90826    1.000
    N5493    N        0.86414    0.53989    0.93571    1.000
    N5494    N        0.83079    0.71535    0.89846    1.000
    N5495    N        0.78956    0.66369    0.91086    1.000
    Si5496   Si       0.79899    0.74891    0.89653    1.000
    N5497    N        0.77264    0.75358    0.92981    1.000
    Si5498   Si       0.82306    0.68293    0.92845    1.000
    Si5499   Si       0.75799    0.65191    0.93710    1.000
    Si5500   Si       0.86697    0.73828    0.88175    1.000
    N5501    N        0.89881    0.66521    0.88771    1.000
    Si5502   Si       0.93191    0.69243    0.88635    1.000
    N5503    N        0.95497    0.69583    0.92158    1.000
    N5504    N        0.91006    0.73191    0.88403    1.000
    Si5505   Si       0.98551    0.72783    0.91683    1.000
    N5506    N        0.97705    0.74683    0.87856    1.000
    N5507    N        0.79341    0.53896    0.95292    1.000
    N5508    N        0.84706    0.58560    0.98076    1.000
    Si5509   Si       0.82839    0.56370    0.94645    1.000
    Si5510   Si       0.80262    0.51539    0.98839    1.000
    Si5511   Si       0.85469    0.63007    0.98551    1.000
    Si5512   Si       0.95024    0.55776    0.95375    1.000
    N5513    N        0.92049    0.57350    0.98141    1.000
    N5514    N        0.97832    0.59234    0.95076    1.000
    N5515    N        0.96767    0.51901    0.96051    1.000
    Si5516   Si       0.92923    0.61591    0.98623    1.000
    Si5517   Si       0.87402    0.50700    0.96289    1.000
    N5518    N        0.77176    0.63171    0.97313    1.000
    N5519    N        0.80018    0.70320    0.96257    1.000
    Si5520   Si       0.76018    0.72051    0.95756    1.000
    N5521    N        0.84559    0.64841    0.94415    1.000
    Si5522   Si       0.83144    0.70343    0.99414    1.000
    N5523    N        0.74365    0.75376    0.98471    1.000
    N5524    N        0.86564    0.71585    0.96794    1.000
    N5525    N        0.92970    0.63953    0.95029    1.000
    N5526    N        0.90991    0.76039    0.96673    1.000
    Si5527   Si       0.95468    0.67593    0.95935    1.000
    N5528    N        0.93992    0.69987    0.99265    1.000
    Si5529   Si       0.90315    0.72227    0.99016    1.000
    N5530    N        0.98233    0.75493    0.94884    1.000
    Si5531   Si       0.86909    0.75693    0.95316    1.000
    N5532    N        0.75594    0.85643    0.03468    1.000
    Si5533   Si       0.85483    0.76403    0.02028    1.000
    N5534    N        0.77206    0.78256    0.04291    1.000
    N5535    N        0.82330    0.84471    0.00044    1.000
    Si5536   Si       0.77672    0.85028    0.99292    1.000
    N5537    N        0.94666    0.87836    0.00846    1.000
    Si5538   Si       0.97363    0.87078    0.04417    1.000
    N5539    N        0.90454    0.83037    0.02937    1.000
    Si5540   Si       0.94062    0.80644    0.03040    1.000
    Si5541   Si       0.90461    0.87084    0.01228    1.000
    Si5542   Si       0.76227    0.96597    0.04987    1.000
    Si5543   Si       0.82388    0.88951    0.00408    1.000
    N5544    N        0.81613    0.89569    0.04661    1.000
    N5545    N        0.74711    0.92725    0.03690    1.000
    N5546    N        0.79671    0.98461    0.02583    1.000
    Si5547   Si       0.77305    0.89398    0.05045    1.000
    N5548    N        0.89153    0.89700    0.04583    1.000
    N5549    N        0.78899    0.83145    0.09536    1.000
    N5550    N        0.85375    0.85218    0.08383    1.000
    Si5551   Si       0.76160    0.82180    0.06356    1.000
    Si5552   Si       0.84836    0.76532    0.09252    1.000
    N5553    N        0.85597    0.78839    0.05704    1.000
    Si5554   Si       0.95106    0.80791    0.09182    1.000
    N5555    N        0.91314    0.82896    0.09859    1.000
    Si5556   Si       0.88082    0.82460    0.06466    1.000
    N5557    N        0.93509    0.77670    0.06254    1.000
    N5558    N        0.96702    0.82857    0.05590    1.000
    Si5559   Si       0.85270    0.89374    0.07026    1.000
    N5560    N        0.83645    0.92267    0.10139    1.000
    N5561    N        0.77715    0.96614    0.09115    1.000
    N5562    N        0.76989    0.89718    0.09458    1.000
    Si5563   Si       0.79397    0.93299    0.11160    1.000
    Si5564   Si       0.86271    0.00505    0.11045    1.000
    Si5565   Si       0.75831    0.00717    0.09667    1.000
    Si5566   Si       0.92159    0.91746    0.07263    1.000
    N5567    N        0.96051    0.89571    0.07530    1.000
    N5568    N        0.86933    0.99017    0.07042    1.000
    N5569    N        0.93112    0.96017    0.06858    1.000
    Si5570   Si       0.97186    0.97961    0.06854    1.000
    N5571    N        0.89938    0.90573    0.11023    1.000
    Si5572   Si       0.91465    0.00253    0.07582    1.000
    N5573    N        0.84272    0.79479    0.12564    1.000
    N5574    N        0.80855    0.86386    0.14577    1.000
    Si5575   Si       0.77245    0.86150    0.12057    1.000
    Si5576   Si       0.83434    0.76968    0.16280    1.000
    Si5577   Si       0.83213    0.83739    0.11996    1.000
    Si5578   Si       0.84088    0.87607    0.17156    1.000
    N5579    N        0.87088    0.85223    0.15008    1.000
    Si5580   Si       0.94964    0.76929    0.15954    1.000
    N5581    N        0.96849    0.78847    0.12476    1.000
    N5582    N        0.93672    0.86726    0.15651    1.000
    Si5583   Si       0.90614    0.86317    0.12481    1.000
    N5584    N        0.78445    0.94752    0.15213    1.000
    N5585    N        0.85279    0.91808    0.16778    1.000
    Si5586   Si       0.74293    0.94633    0.16880    1.000
    N5587    N        0.92906    0.94029    0.17226    1.000
    Si5588   Si       0.86802    0.93024    0.12943    1.000
    N5589    N        0.87699    0.97157    0.13400    1.000
    Si5590   Si       0.95551    0.90633    0.16632    1.000
    Si5591   Si       0.90601    0.97710    0.16618    1.000
    Si5592   Si       0.77062    0.80933    0.19691    1.000
    N5593    N        0.83225    0.86659    0.21204    1.000
    N5594    N        0.76111    0.85088    0.20357    1.000
    N5595    N        0.85341    0.78493    0.20014    1.000
    N5596    N        0.79145    0.77770    0.17234    1.000
    N5597    N        0.96340    0.83928    0.21168    1.000
    Si5598   Si       0.89397    0.79406    0.20955    1.000
    N5599    N        0.89508    0.83924    0.21691    1.000
    N5600    N        0.97642    0.76602    0.19567    1.000
    Si5601   Si       0.92752    0.83915    0.18662    1.000
    N5602    N        0.92038    0.79757    0.17462    1.000
    Si5603   Si       0.79387    0.98110    0.18127    1.000
    N5604    N        0.81718    0.96050    0.21362    1.000
    N5605    N        0.75193    0.98409    0.19067    1.000
    Si5606   Si       0.85323    0.93914    0.20537    1.000
    N5607    N        0.88201    0.97368    0.20270    1.000
    Si5608   Si       0.91970    0.92880    0.21622    1.000
    N5609    N        0.95967    0.90732    0.21363    1.000
    N5610    N        0.88211    0.91099    0.22501    1.000
    N5611    N        0.79434    0.87330    0.27039    1.000
    N5612    N        0.85583    0.77953    0.26934    1.000
    Si5613   Si       0.82906    0.78047    0.23712    1.000
    N5614    N        0.80006    0.81136    0.23230    1.000
    Si5615   Si       0.79638    0.85502    0.23149    1.000
    N5616    N        0.86462    0.86956    0.27791    1.000
    N5617    N        0.93583    0.87355    0.27434    1.000
    Si5618   Si       0.96151    0.87263    0.23917    1.000
    Si5619   Si       0.86841    0.86905    0.23440    1.000
    N5620    N        0.91413    0.76597    0.23315    1.000
    Si5621   Si       0.76663    0.90528    0.27774    1.000
    N5622    N        0.76175    0.93827    0.24983    1.000
    Si5623   Si       0.79080    0.97053    0.24811    1.000
    N5624    N        0.81164    0.96611    0.28599    1.000
    Si5625   Si       0.89927    0.98894    0.24058    1.000
    N5626    N        0.98752    0.96506    0.25234    1.000
    Si5627   Si       0.95210    0.96099    0.28226    1.000
    N5628    N        0.92392    0.95443    0.25176    1.000
    Si5629   Si       0.78628    0.80226    0.33419    1.000
    N5630    N        0.82128    0.82070    0.31326    1.000
    Si5631   Si       0.82496    0.86336    0.29803    1.000
    N5632    N        0.79772    0.76183    0.34302    1.000
    N5633    N        0.74339    0.80478    0.31790    1.000
    Si5634   Si       0.85806    0.80195    0.30694    1.000
    N5635    N        0.87280    0.77228    0.33795    1.000
    N5636    N        0.89683    0.82366    0.31219    1.000
    Si5637   Si       0.90151    0.86507    0.29913    1.000
    Si5638   Si       0.91341    0.79314    0.33999    1.000
    N5639    N        0.94683    0.76640    0.33643    1.000
    N5640    N        0.98380    0.86126    0.32467    1.000
    N5641    N        0.83213    0.88989    0.33180    1.000
    N5642    N        0.77011    0.91903    0.31740    1.000
    Si5643   Si       0.78529    0.95906    0.31885    1.000
    N5644    N        0.75593    0.99041    0.31360    1.000
    Si5645   Si       0.84257    0.99370    0.29900    1.000
    Si5646   Si       0.79777    0.90755    0.34797    1.000
    N5647    N        0.86213    0.98163    0.33452    1.000
    N5648    N        0.93552    0.99728    0.30109    1.000
    Si5649   Si       0.93242    0.92133    0.34746    1.000
    N5650    N        0.95239    0.92788    0.30941    1.000
    Si5651   Si       0.96796    0.89003    0.29885    1.000
    N5652    N        0.90447    0.88919    0.33751    1.000
    Si5653   Si       0.90420    0.99292    0.33289    1.000
    N5654    N        0.79370    0.81597    0.37598    1.000
    Si5655   Si       0.81511    0.84924    0.39478    1.000
    Si5656   Si       0.79319    0.76966    0.38822    1.000
    N5657    N        0.85725    0.85684    0.38180    1.000
    N5658    N        0.83484    0.76627    0.40062    1.000
    N5659    N        0.91256    0.81238    0.37825    1.000
    Si5660   Si       0.89094    0.84045    0.40329    1.000
    N5661    N        0.97952    0.85157    0.40280    1.000
    N5662    N        0.79032    0.88534    0.38464    1.000
    Si5663   Si       0.78321    0.96565    0.39632    1.000
    N5664    N        0.80603    0.94895    0.35735    1.000
    Si5665   Si       0.84783    0.96900    0.37375    1.000
    N5666    N        0.74456    0.98242    0.38937    1.000
    N5667    N        0.81608    0.99441    0.39898    1.000
    N5668    N        0.86614    0.92817    0.38385    1.000
    Si5669   Si       0.91695    0.97495    0.39982    1.000
    N5670    N        0.96195    0.90301    0.37448    1.000
    Si5671   Si       0.86709    0.89275    0.35838    1.000
    N5672    N        0.92243    0.96104    0.35943    1.000
    N5673    N        0.87989    0.99526    0.39467    1.000
    N5674    N        0.82041    0.85075    0.43659    1.000
    N5675    N        0.78248    0.77938    0.43225    1.000
    N5676    N        0.75259    0.87369    0.44042    1.000
    Si5677   Si       0.74922    0.79265    0.45522    1.000
    Si5678   Si       0.82311    0.76612    0.44207    1.000
    Si5679   Si       0.78245    0.85383    0.46409    1.000
    N5680    N        0.89591    0.81088    0.43852    1.000
    Si5681   Si       0.92384    0.78704    0.41218    1.000
    N5682    N        0.96724    0.77996    0.41181    1.000
    N5683    N        0.90745    0.87921    0.41363    1.000
    N5684    N        0.77498    0.93950    0.43060    1.000
    Si5685   Si       0.76074    0.90358    0.40918    1.000
    N5686    N        0.86671    0.90852    0.46044    1.000
    Si5687   Si       0.95005    0.88503    0.41212    1.000
    Si5688   Si       0.88414    0.91547    0.42282    1.000
    N5689    N        0.96284    0.90346    0.44783    1.000
    N5690    N        0.91604    0.94444    0.42987    1.000
    Si5691   Si       0.97566    0.00005    0.44085    1.000
    N5692    N        0.94508    0.00751    0.40946    1.000
    N5693    N        0.76543    0.82040    0.48376    1.000
    N5694    N        0.84172    0.78085    0.47801    1.000
    N5695    N        0.78791    0.76396    0.51572    1.000
    Si5696   Si       0.83026    0.76132    0.51571    1.000
    Si5697   Si       0.84455    0.87137    0.46841    1.000
    N5698    N        0.80605    0.87995    0.48832    1.000
    Si5699   Si       0.76879    0.80317    0.52303    1.000
    N5700    N        0.86528    0.84530    0.49675    1.000
    Si5701   Si       0.98442    0.76495    0.50470    1.000
    N5702    N        0.90311    0.78459    0.50711    1.000
    Si5703   Si       0.87754    0.80669    0.47960    1.000
    Si5704   Si       0.81806    0.97757    0.51144    1.000
    N5705    N        0.74959    0.92164    0.49706    1.000
    N5706    N        0.77988    0.98354    0.49286    1.000
    N5707    N        0.85141    0.97811    0.48512    1.000
    Si5708   Si       0.78842    0.91127    0.51332    1.000
    Si5709   Si       0.75968    0.95307    0.46927    1.000
    N5710    N        0.82400    0.93545    0.52079    1.000
    Si5711   Si       0.93885    0.93896    0.46737    1.000
    N5712    N        0.90868    0.95716    0.49705    1.000
    Si5713   Si       0.86465    0.93602    0.49533    1.000
    Si5714   Si       0.98391    0.89246    0.48344    1.000
    N5715    N        0.95230    0.90882    0.50886    1.000
    N5716    N        0.97177    0.96753    0.47047    1.000
    Si5717   Si       0.88966    0.99733    0.49280    1.000
    N5718    N        0.79233    0.82170    0.55458    1.000
    N5719    N        0.84910    0.85938    0.56497    1.000
    Si5720   Si       0.80512    0.86246    0.56869    1.000
    N5721    N        0.84179    0.76608    0.55737    1.000
    Si5722   Si       0.81303    0.79137    0.57859    1.000
    N5723    N        0.91368    0.84451    0.55045    1.000
    Si5724   Si       0.92333    0.80252    0.54094    1.000
    Si5725   Si       0.87815    0.86550    0.53306    1.000
    N5726    N        0.92034    0.77605    0.57635    1.000
    N5727    N        0.96466    0.80049    0.52611    1.000
    N5728    N        0.82292    0.00574    0.54410    1.000
    N5729    N        0.77872    0.89138    0.55028    1.000
    Si5730   Si       0.84802    0.92773    0.55635    1.000
    Si5731   Si       0.86344    0.00422    0.56040    1.000
    Si5732   Si       0.91999    0.93016    0.52991    1.000
    N5733    N        0.88094    0.91034    0.53091    1.000
    Si5734   Si       0.97045    0.98303    0.55909    1.000
    N5735    N        0.87192    0.96316    0.56947    1.000
    N5736    N        0.94218    0.95095    0.56279    1.000
    N5737    N        0.83557    0.80681    0.61186    1.000
    N5738    N        0.79860    0.87001    0.61047    1.000
    Si5739   Si       0.76057    0.86013    0.62335    1.000
    Si5740   Si       0.75195    0.78245    0.62022    1.000
    N5741    N        0.78146    0.76654    0.59212    1.000
    Si5742   Si       0.86093    0.84222    0.60456    1.000
    N5743    N        0.86429    0.87658    0.63148    1.000
    N5744    N        0.97143    0.84104    0.60091    1.000
    N5745    N        0.90164    0.82759    0.61121    1.000
    Si5746   Si       0.91130    0.78502    0.61960    1.000
    Si5747   Si       0.92879    0.85210    0.59045    1.000
    Si5748   Si       0.97673    0.81919    0.63972    1.000
    N5749    N        0.94683    0.78609    0.64425    1.000
    N5750    N        0.88072    0.76508    0.64230    1.000
    Si5751   Si       0.74018    0.92789    0.63992    1.000
    Si5752   Si       0.82613    0.89693    0.62811    1.000
    Si5753   Si       0.85802    0.95813    0.61335    1.000
    N5754    N        0.83197    0.98127    0.64006    1.000
    N5755    N        0.83196    0.92499    0.59702    1.000
    N5756    N        0.98496    0.00695    0.59241    1.000
    N5757    N        0.96032    0.95134    0.63190    1.000
    N5758    N        0.92527    0.89403    0.60580    1.000
    Si5759   Si       0.95188    0.92586    0.59814    1.000
    N5760    N        0.89160    0.94354    0.63758    1.000
    N5761    N        0.82038    0.79425    0.68119    1.000
    Si5762   Si       0.78099    0.81682    0.67966    1.000
    N5763    N        0.79179    0.85359    0.69727    1.000
    Si5764   Si       0.83778    0.77714    0.64424    1.000
    N5765    N        0.76223    0.81845    0.64042    1.000
    N5766    N        0.97710    0.84853    0.67204    1.000
    Si5767   Si       0.96200    0.75744    0.67274    1.000
    N5768    N        0.81634    0.91476    0.66684    1.000
    N5769    N        0.75233    0.88984    0.65532    1.000
    Si5770   Si       0.78279    0.89353    0.68604    1.000
    Si5771   Si       0.80799    0.95745    0.66760    1.000
    N5772    N        0.76607    0.95672    0.65672    1.000
    N5773    N        0.92814    0.96086    0.69476    1.000
    Si5774   Si       0.92476    0.96755    0.65296    1.000
    N5775    N        0.91621    0.89586    0.68404    1.000
    Si5776   Si       0.90099    0.90019    0.64282    1.000
    Si5777   Si       0.81901    0.86090    0.73128    1.000
    Si5778   Si       0.80624    0.79001    0.72284    1.000
    N5779    N        0.76418    0.79208    0.71107    1.000
    N5780    N        0.82111    0.82262    0.74872    1.000
    N5781    N        0.85725    0.87409    0.71730    1.000
    N5782    N        0.91540    0.83618    0.73274    1.000
    Si5783   Si       0.95395    0.81419    0.73215    1.000
    Si5784   Si       0.89948    0.87424    0.71940    1.000
    N5785    N        0.88831    0.76901    0.72935    1.000
    N5786    N        0.96048    0.77872    0.71041    1.000
    N5787    N        0.98641    0.84145    0.73649    1.000
    Si5788   Si       0.89617    0.80404    0.75581    1.000
    Si5789   Si       0.84903    0.99110    0.73214    1.000
    N5790    N        0.76002    0.91668    0.71390    1.000
    Si5791   Si       0.78765    0.98497    0.73481    1.000
    N5792    N        0.75117    0.99351    0.71507    1.000
    N5793    N        0.82017    0.97158    0.70701    1.000
    Si5794   Si       0.76234    0.91034    0.75721    1.000
    N5795    N        0.80401    0.89262    0.75603    1.000
    Si5796   Si       0.92186    0.99670    0.72288    1.000
    Si5797   Si       0.93818    0.92170    0.70973    1.000
    N5798    N        0.97915    0.91168    0.71273    1.000
    N5799    N        0.91359    0.90977    0.74419    1.000
    Si5800   Si       0.83271    0.82167    0.79060    1.000
    N5801    N        0.84257    0.86140    0.80797    1.000
    N5802    N        0.87194    0.80387    0.79307    1.000
    N5803    N        0.93756    0.78933    0.76803    1.000
    Si5804   Si       0.95142    0.78072    0.80814    1.000
    N5805    N        0.98441    0.86769    0.80419    1.000
    Si5806   Si       0.74583    0.96760    0.79654    1.000
    Si5807   Si       0.81019    0.89067    0.79857    1.000
    Si5808   Si       0.82317    0.95985    0.78865    1.000
    N5809    N        0.78194    0.95933    0.76898    1.000
    N5810    N        0.85988    0.96184    0.76217    1.000
    N5811    N        0.82412    0.92602    0.81734    1.000
    N5812    N        0.82267    0.99313    0.81616    1.000
    Si5813   Si       0.94240    0.90276    0.80571    1.000
    N5814    N        0.98509    0.99450    0.80082    1.000
    N5815    N        0.97401    0.92759    0.79030    1.000
    Si5816   Si       0.89859    0.94397    0.76963    1.000
    N5817    N        0.91129    0.93270    0.81109    1.000
    Si5818   Si       0.96929    0.96739    0.77149    1.000
    N5819    N        0.92908    0.97371    0.75878    1.000
    Si5820   Si       0.85425    0.85848    0.85155    1.000
    Si5821   Si       0.78438    0.84067    0.84641    1.000
    Si5822   Si       0.78266    0.77541    0.83920    1.000
    N5823    N        0.74692    0.83148    0.86447    1.000
    N5824    N        0.80036    0.81026    0.81973    1.000
    N5825    N        0.74037    0.78060    0.82536    1.000
    N5826    N        0.86883    0.81963    0.86294    1.000
    N5827    N        0.81251    0.86250    0.87232    1.000
    N5828    N        0.77575    0.87407    0.81722    1.000
    Si5829   Si       0.96261    0.84538    0.83509    1.000
    N5830    N        0.92550    0.78850    0.84341    1.000
    Si5831   Si       0.88460    0.79350    0.83232    1.000
    N5832    N        0.92695    0.87186    0.83388    1.000
    N5833    N        0.98203    0.80666    0.82446    1.000
    N5834    N        0.97174    0.85228    0.87693    1.000
    Si5835   Si       0.84285    0.92895    0.85537    1.000
    Si5836   Si       0.83861    0.99762    0.85514    1.000
    Si5837   Si       0.91217    0.88886    0.87367    1.000
    N5838    N        0.87035    0.89638    0.86221    1.000
    N5839    N        0.93084    0.98906    0.85000    1.000
    Si5840   Si       0.91058    0.95179    0.84977    1.000
    N5841    N        0.86830    0.96426    0.85795    1.000
    Si5842   Si       0.84479    0.80366    0.89649    1.000
    N5843    N        0.84518    0.82859    0.93007    1.000
    N5844    N        0.80956    0.78662    0.87803    1.000
    N5845    N        0.86322    0.76868    0.91299    1.000
    N5846    N        0.94187    0.79761    0.91325    1.000
    N5847    N        0.90740    0.86072    0.90896    1.000
    Si5848   Si       0.94665    0.84104    0.91216    1.000
    Si5849   Si       0.93648    0.76835    0.88093    1.000
    Si5850   Si       0.86947    0.86375    0.93478    1.000
    N5851    N        0.76384    0.89963    0.92009    1.000
    N5852    N        0.81681    0.00019    0.89282    1.000
    N5853    N        0.80955    0.93235    0.88539    1.000
    Si5854   Si       0.80063    0.96496    0.91171    1.000
    Si5855   Si       0.80574    0.89490    0.90475    1.000
    N5856    N        0.76069    0.97494    0.91999    1.000
    N5857    N        0.84107    0.89746    0.93128    1.000
    Si5858   Si       0.92810    0.94654    0.92404    1.000
    N5859    N        0.92438    0.92725    0.88345    1.000
    N5860    N        0.95767    0.98120    0.92284    1.000
    N5861    N        0.78188    0.81624    0.96454    1.000
    Si5862   Si       0.82647    0.81579    0.96791    1.000
    N5863    N        0.84777    0.78322    0.98130    1.000
    Si5864   Si       0.75402    0.78481    0.95201    1.000
    N5865    N        0.97299    0.85157    0.94452    1.000
    Si5866   Si       0.94601    0.78353    0.95419    1.000
    N5867    N        0.88261    0.86888    0.97595    1.000
    N5868    N        0.96113    0.79420    0.99501    1.000
    N5869    N        0.78552    0.89329    0.98483    1.000
    Si5870   Si       0.75117    0.90038    0.96283    1.000
    N5871    N        0.82134    0.96297    0.95000    1.000
    Si5872   Si       0.85392    0.93264    0.95238    1.000
    N5873    N        0.84239    0.92729    0.99418    1.000
    Si5874   Si       0.82272    0.96702    0.99412    1.000
    N5875    N        0.85912    0.99174    0.99672    1.000
    Si5876   Si       0.87932    0.99781    0.95823    1.000
    Si5877   Si       0.96222    0.88597    0.96876    1.000
    N5878    N        0.88847    0.95969    0.93925    1.000
    N5879    N        0.94275    0.91899    0.95254    1.000
