# CIF file generated by openbabel 3.1.1, see https://openbabel.org
data_I
_chemical_name_common '3.01-51.aims'
_cell_length_a 39.9264
_cell_length_b 39.9264
_cell_length_c 39.9264
_cell_angle_alpha 90
_cell_angle_beta 90
_cell_angle_gamma 90
loop_
    _atom_site_label
    _atom_site_type_symbol
    _atom_site_fract_x
    _atom_site_fract_y
    _atom_site_fract_z
    _atom_site_occupancy
    Si0      Si       0.00615    0.09140    0.09097    1.000
    N1       N        0.03957    0.06772    0.07911    1.000
    N2       N        0.02350    0.01631    0.12026    1.000
    N3       N        0.01507    0.03687    0.00701    1.000
    N4       N        0.04575    0.10400    0.01761    1.000
    N5       N        0.01943    0.13254    0.09255    1.000
    N6       N        0.00443    0.16341    0.03211    1.000
    N7       N        0.01895    0.23284    0.04385    1.000
    Si8      Si       0.03380    0.19140    0.04455    1.000
    Si9      Si       0.01703    0.25280    0.00456    1.000
    Si10     Si       0.00981    0.25421    0.07867    1.000
    N11      N        0.04029    0.25236    0.10923    1.000
    Si12     Si       0.00205    0.04174    0.14651    1.000
    N13      N        0.03252    0.04975    0.17828    1.000
    Si14     Si       0.02381    0.01764    0.20636    1.000
    N15      N        0.99576    0.08120    0.13040    1.000
    N16      N        0.04212    0.02444    0.24457    1.000
    Si17     Si       0.99420    0.11436    0.15800    1.000
    N18      N        0.03194    0.12904    0.17227    1.000
    N19      N        0.02069    0.13267    0.24343    1.000
    Si20     Si       0.03098    0.15540    0.20902    1.000
    N21      N        0.01218    0.19291    0.19723    1.000
    Si22     Si       0.03778    0.22554    0.18367    1.000
    N23      N        0.00709    0.25336    0.16845    1.000
    Si24     Si       0.02340    0.04977    0.27451    1.000
    N25      N        0.01269    0.02369    0.30751    1.000
    Si26     Si       0.04573    0.11600    0.27370    1.000
    N27      N        0.04817    0.07864    0.29475    1.000
    N28      N        0.03260    0.14494    0.30706    1.000
    Si29     Si       0.00174    0.16645    0.27813    1.000
    Si30     Si       0.01859    0.15100    0.34967    1.000
    N31      N        0.03253    0.19425    0.26769    1.000
    N32      N        0.02571    0.24909    0.34279    1.000
    N33      N        0.01721    0.19086    0.36293    1.000
    Si34     Si       0.99441    0.06366    0.45523    1.000
    N35      N        0.03204    0.08076    0.43543    1.000
    Si36     Si       0.99672    0.02525    0.40098    1.000
    Si37     Si       0.03245    0.08620    0.39173    1.000
    N38      N        0.99591    0.06583    0.38243    1.000
    N39      N        0.03948    0.01671    0.40716    1.000
    N40      N        0.04050    0.12946    0.38091    1.000
    N41      N        0.05010    0.25321    0.46280    1.000
    N42      N        0.00502    0.24569    0.40811    1.000
    Si43     Si       0.00279    0.20313    0.40327    1.000
    N44      N        0.03631    0.18604    0.42711    1.000
    Si45     Si       0.99463    0.18938    0.49392    1.000
    Si46     Si       0.02972    0.08896    0.51727    1.000
    N47      N        0.00183    0.12041    0.51603    1.000
    Si48     Si       0.01270    0.01434    0.50339    1.000
    N49      N        0.04132    0.08124    0.55663    1.000
    N50      N        0.01038    0.05650    0.49512    1.000
    N51      N        0.03732    0.18911    0.49570    1.000
    N52      N        0.02361    0.06410    0.62436    1.000
    N53      N        0.01927    0.11977    0.72362    1.000
    Si54     Si       0.02532    0.09690    0.68531    1.000
    N55      N        0.01175    0.02641    0.74121    1.000
    N56      N        0.02699    0.25493    0.71594    1.000
    Si57     Si       0.99357    0.22641    0.71667    1.000
    N58      N        0.01244    0.24567    0.64455    1.000
    N59      N        0.00725    0.19390    0.68937    1.000
    Si60     Si       0.02729    0.15991    0.70478    1.000
    N61      N        0.02558    0.13607    0.66331    1.000
    Si62     Si       0.01518    0.20318    0.64728    1.000
    N63      N        0.02705    0.04415    0.83667    1.000
    N64      N        0.00450    0.08649    0.78147    1.000
    N65      N        0.03543    0.11281    0.84095    1.000
    Si66     Si       0.03580    0.07862    0.81221    1.000
    Si67     Si       0.00271    0.12351    0.76239    1.000
    Si68     Si       0.00461    0.11799    0.87002    1.000
    N69      N        0.02188    0.15429    0.78858    1.000
    Si70     Si       0.01065    0.19841    0.78687    1.000
    N71      N        0.04441    0.22438    0.77911    1.000
    N72      N        0.99582    0.15982    0.86844    1.000
    Si73     Si       0.05081    0.14664    0.81856    1.000
    Si74     Si       0.01933    0.07879    0.99608    1.000
    Si75     Si       0.03446    0.06867    0.91425    1.000
    N76      N        0.02119    0.10974    0.90922    1.000
    N77      N        0.00375    0.03993    0.90314    1.000
    N78      N        0.04030    0.06790    0.95935    1.000
    Si79     Si       0.04672    0.02679    0.97620    1.000
    N80      N        0.04032    0.15107    0.97062    1.000
    N81      N        0.03253    0.23508    0.87348    1.000
    Si82     Si       0.04931    0.13727    0.92859    1.000
    N83      N        0.01922    0.21833    0.97401    1.000
    Si84     Si       0.02910    0.19006    0.87483    1.000
    Si85     Si       0.00080    0.14682    0.99149    1.000
    Si86     Si       0.99619    0.24862    0.88981    1.000
    N87      N        0.04532    0.17897    0.91441    1.000
    N88      N        0.99814    0.34888    0.01761    1.000
    N89      N        0.01147    0.29624    0.06859    1.000
    Si90     Si       0.02742    0.37887    0.02831    1.000
    Si91     Si       0.02207    0.37818    0.09871    1.000
    N92      N        0.04566    0.28771    0.01277    1.000
    Si93     Si       0.04905    0.31059    0.05054    1.000
    Si94     Si       0.00535    0.45169    0.07234    1.000
    N95      N        0.02892    0.40408    0.06535    1.000
    N96      N        0.00317    0.46842    0.03222    1.000
    N97      N        0.03918    0.40967    0.99867    1.000
    N98      N        0.01906    0.34668    0.18404    1.000
    Si99     Si       0.01483    0.31548    0.22587    1.000
    Si100    Si       0.02838    0.27939    0.14169    1.000
    Si101    Si       0.02070    0.38000    0.21454    1.000
    N102     N        0.99219    0.30387    0.13519    1.000
    N103     N        0.99870    0.35585    0.24427    1.000
    Si104    Si       0.99934    0.49802    0.13523    1.000
    N105     N        0.02932    0.40563    0.13239    1.000
    N106     N        0.98803    0.47389    0.22547    1.000
    Si107    Si       0.02629    0.47446    0.20528    1.000
    N108     N        0.01332    0.46902    0.16368    1.000
    N109     N        0.99982    0.41358    0.19746    1.000
    Si110    Si       0.00015    0.42763    0.15578    1.000
    Si111    Si       0.02227    0.27216    0.29726    1.000
    N112     N        0.02512    0.30935    0.31602    1.000
    N113     N        0.03235    0.37725    0.30081    1.000
    N114     N        0.01128    0.28389    0.25385    1.000
    Si115    Si       0.99224    0.37621    0.28418    1.000
    N116     N        0.00310    0.42020    0.26420    1.000
    Si117    Si       0.02509    0.45454    0.36202    1.000
    N118     N        0.00211    0.46681    0.32710    1.000
    Si119    Si       0.04474    0.40753    0.27236    1.000
    Si120    Si       0.01436    0.27659    0.37647    1.000
    N121     N        0.99919    0.30239    0.45043    1.000
    Si122    Si       0.02639    0.33597    0.45663    1.000
    N123     N        0.00126    0.36107    0.48205    1.000
    N124     N        0.04165    0.35836    0.42116    1.000
    Si125    Si       0.00847    0.26055    0.44861    1.000
    N126     N        0.99615    0.41298    0.43062    1.000
    Si127    Si       0.02593    0.49697    0.42629    1.000
    N128     N        0.03798    0.48198    0.46427    1.000
    N129     N        0.02293    0.41297    0.37240    1.000
    Si130    Si       0.03337    0.40042    0.41165    1.000
    Si131    Si       0.99268    0.40324    0.47234    1.000
    N132     N        0.00571    0.47276    0.39819    1.000
    N133     N        0.01398    0.30096    0.59824    1.000
    Si134    Si       0.01767    0.28257    0.55384    1.000
    N135     N        0.00641    0.36207    0.60584    1.000
    Si136    Si       0.04142    0.33465    0.61072    1.000
    N137     N        0.99394    0.31836    0.54082    1.000
    Si138    Si       0.99107    0.26349    0.61067    1.000
    Si139    Si       0.01129    0.44456    0.53326    1.000
    N140     N        0.02525    0.42479    0.56772    1.000
    N141     N        0.03437    0.48083    0.53707    1.000
    N142     N        0.02219    0.49075    0.61452    1.000
    Si143    Si       0.01574    0.40323    0.60785    1.000
    Si144    Si       0.04542    0.49609    0.57784    1.000
    Si145    Si       0.04329    0.50588    0.50097    1.000
    N146     N        0.02039    0.42827    0.49265    1.000
    Si147    Si       0.03320    0.27065    0.67590    1.000
    Si148    Si       0.02353    0.34137    0.68168    1.000
    N149     N        0.00235    0.30152    0.67637    1.000
    Si150    Si       0.00991    0.35325    0.74219    1.000
    N151     N        0.04373    0.33298    0.72259    1.000
    N152     N        0.02383    0.39314    0.74596    1.000
    N153     N        0.02144    0.44685    0.70305    1.000
    Si154    Si       0.00589    0.40396    0.70532    1.000
    N155     N        0.03544    0.38561    0.67673    1.000
    Si156    Si       0.01616    0.33816    0.81405    1.000
    N157     N        0.99262    0.33809    0.77654    1.000
    N158     N        0.02543    0.38326    0.81656    1.000
    N159     N        0.02946    0.45088    0.78268    1.000
    Si160    Si       0.03281    0.40072    0.85702    1.000
    N161     N        0.00455    0.50036    0.81792    1.000
    Si162    Si       0.03820    0.40864    0.78420    1.000
    Si163    Si       0.98903    0.47016    0.79045    1.000
    Si164    Si       0.01048    0.35618    0.91696    1.000
    N165     N        0.02759    0.32776    0.94879    1.000
    N166     N        0.03779    0.36664    0.88333    1.000
    N167     N        0.00153    0.27153    0.92617    1.000
    Si168    Si       0.03891    0.29178    0.92820    1.000
    Si169    Si       0.01781    0.31746    0.98965    1.000
    N170     N        0.99053    0.28407    0.98956    1.000
    N171     N        0.02272    0.46907    0.96800    1.000
    N172     N        0.00180    0.42605    0.87209    1.000
    Si173    Si       0.99030    0.48842    0.94812    1.000
    Si174    Si       0.00978    0.42786    0.91560    1.000
    N175     N        0.99643    0.39353    0.93571    1.000
    Si176    Si       0.01082    0.44287    0.99957    1.000
    Si177    Si       0.00289    0.60944    0.07242    1.000
    N178     N        0.03588    0.58993    0.05113    1.000
    Si179    Si       0.03518    0.54614    0.03379    1.000
    N180     N        0.00063    0.59240    0.11331    1.000
    N181     N        0.99283    0.53703    0.03832    1.000
    N182     N        0.03070    0.52334    0.11699    1.000
    Si183    Si       0.00832    0.67652    0.03860    1.000
    N184     N        0.00728    0.65258    0.07539    1.000
    N185     N        0.04292    0.70165    0.05430    1.000
    N186     N        0.00240    0.65375    0.00137    1.000
    N187     N        0.01146    0.76067    0.05863    1.000
    Si188    Si       0.03168    0.56502    0.12665    1.000
    N189     N        0.03871    0.51626    0.21203    1.000
    N190     N        0.02743    0.56605    0.16981    1.000
    Si191    Si       0.98821    0.55781    0.18434    1.000
    Si192    Si       0.00733    0.71804    0.14203    1.000
    N193     N        0.03012    0.75425    0.14757    1.000
    N194     N        0.03164    0.68369    0.13149    1.000
    N195     N        0.02842    0.65400    0.19083    1.000
    Si196    Si       0.98757    0.66575    0.17854    1.000
    N197     N        0.98733    0.70795    0.18119    1.000
    N198     N        0.01905    0.75834    0.22030    1.000
    N199     N        0.02963    0.54051    0.32771    1.000
    Si200    Si       0.01782    0.60111    0.28110    1.000
    N201     N        0.03435    0.61098    0.31944    1.000
    Si202    Si       0.02376    0.57892    0.34928    1.000
    N203     N        0.03779    0.56890    0.25933    1.000
    Si204    Si       0.02745    0.52682    0.25233    1.000
    Si205    Si       0.99868    0.51063    0.31879    1.000
    N206     N        0.99525    0.51323    0.27667    1.000
    N207     N        0.01932    0.63693    0.25745    1.000
    Si208    Si       0.01154    0.70244    0.34942    1.000
    N209     N        0.03901    0.68952    0.31814    1.000
    N210     N        0.00472    0.66284    0.36698    1.000
    Si211    Si       0.99686    0.62615    0.45158    1.000
    N212     N        0.01085    0.53694    0.43962    1.000
    N213     N        0.03280    0.62218    0.42320    1.000
    Si214    Si       0.99051    0.54916    0.47598    1.000
    N215     N        0.01523    0.65272    0.48024    1.000
    N216     N        0.02449    0.73353    0.37847    1.000
    N217     N        0.01631    0.75133    0.44666    1.000
    Si218    Si       0.03710    0.65522    0.39598    1.000
    Si219    Si       0.04288    0.72960    0.41827    1.000
    Si220    Si       0.01896    0.73217    0.48730    1.000
    N221     N        0.01610    0.59535    0.54942    1.000
    N222     N        0.02165    0.54228    0.50597    1.000
    Si223    Si       0.04280    0.56268    0.53810    1.000
    Si224    Si       0.02307    0.62780    0.57699    1.000
    N225     N        0.04428    0.60769    0.61123    1.000
    N226     N        0.03042    0.66380    0.54929    1.000
    Si227    Si       0.99850    0.66763    0.51888    1.000
    Si228    Si       0.02337    0.75120    0.56405    1.000
    N229     N        0.02465    0.75816    0.52153    1.000
    N230     N        0.00725    0.61711    0.67213    1.000
    N231     N        0.00886    0.55677    0.64977    1.000
    Si232    Si       0.03681    0.59294    0.65136    1.000
    Si233    Si       0.01846    0.51414    0.65240    1.000
    Si234    Si       0.99562    0.75286    0.72145    1.000
    N235     N        0.99608    0.66587    0.73634    1.000
    N236     N        0.03608    0.74476    0.71061    1.000
    N237     N        0.02042    0.68730    0.67529    1.000
    Si238    Si       0.01839    0.65059    0.69979    1.000
    Si239    Si       0.02433    0.53070    0.79484    1.000
    N240     N        0.02398    0.61963    0.77565    1.000
    Si241    Si       0.98824    0.51601    0.85575    1.000
    N242     N        0.02093    0.53903    0.87247    1.000
    N243     N        0.01592    0.71309    0.86167    1.000
    Si244    Si       0.02025    0.66329    0.77250    1.000
    Si245    Si       0.01994    0.67274    0.84837    1.000
    N246     N        0.99715    0.67413    0.80635    1.000
    Si247    Si       0.99576    0.74942    0.84769    1.000
    N248     N        0.99292    0.64347    0.86183    1.000
    N249     N        0.98743    0.75211    0.76350    1.000
    N250     N        0.01326    0.62890    0.92895    1.000
    Si251    Si       0.03675    0.53319    0.91231    1.000
    Si252    Si       0.01009    0.61983    0.97242    1.000
    N253     N        0.99873    0.52832    0.93392    1.000
    N254     N        0.04470    0.54330    0.99273    1.000
    N255     N        0.99543    0.69515    0.92432    1.000
    Si256    Si       0.00589    0.68474    0.96766    1.000
    Si257    Si       0.01598    0.72710    0.90342    1.000
    N258     N        0.99701    0.72164    0.98741    1.000
    Si259    Si       0.01964    0.80375    0.06172    1.000
    N260     N        0.04361    0.81040    0.02747    1.000
    N261     N        0.04472    0.80949    0.09863    1.000
    Si262    Si       0.03809    0.94847    0.03839    1.000
    Si263    Si       0.02217    0.97477    0.11212    1.000
    N264     N        0.01528    0.97178    0.06822    1.000
    N265     N        0.01169    0.91943    0.02170    1.000
    N266     N        0.02098    0.82446    0.24149    1.000
    Si267    Si       0.00519    0.86072    0.14532    1.000
    N268     N        0.00344    0.86463    0.18865    1.000
    Si269    Si       0.02927    0.79781    0.13673    1.000
    Si270    Si       0.03602    0.83781    0.20204    1.000
    N271     N        0.99158    0.82045    0.14056    1.000
    Si272    Si       0.04667    0.76380    0.18796    1.000
    N273     N        0.04780    0.86592    0.13485    1.000
    N274     N        0.05000    0.92267    0.17150    1.000
    N275     N        0.99691    0.95046    0.13576    1.000
    N276     N        0.03353    0.97857    0.18806    1.000
    Si277    Si       0.01032    0.94194    0.17885    1.000
    N278     N        0.02628    0.84895    0.31565    1.000
    Si279    Si       0.01620    0.78454    0.25612    1.000
    Si280    Si       0.03168    0.85406    0.27223    1.000
    N281     N        0.99429    0.79445    0.34555    1.000
    Si282    Si       0.02907    0.77836    0.36725    1.000
    Si283    Si       0.99210    0.83852    0.33741    1.000
    N284     N        0.01335    0.89308    0.26050    1.000
    Si285    Si       0.04111    0.99010    0.30662    1.000
    N286     N        0.01501    0.95709    0.29171    1.000
    Si287    Si       0.03821    0.92187    0.28311    1.000
    Si288    Si       0.01561    0.79510    0.44352    1.000
    N289     N        0.03240    0.80199    0.40523    1.000
    N290     N        0.03602    0.81220    0.47677    1.000
    N291     N        0.04501    0.86726    0.38252    1.000
    N292     N        0.04381    0.92865    0.46061    1.000
    Si293    Si       0.00147    0.93357    0.44970    1.000
    N294     N        0.01463    0.92953    0.37876    1.000
    N295     N        0.03578    0.99467    0.47343    1.000
    Si296    Si       0.00897    0.88875    0.39306    1.000
    N297     N        0.99183    0.89197    0.43273    1.000
    Si298    Si       0.03028    0.80070    0.51887    1.000
    Si299    Si       0.02834    0.82415    0.60727    1.000
    N300     N        0.03380    0.79315    0.57621    1.000
    N301     N        0.00685    0.88370    0.53455    1.000
    N302     N        0.99248    0.81755    0.52961    1.000
    Si303    Si       0.99417    0.92227    0.52117    1.000
    Si304    Si       0.99816    0.97800    0.55765    1.000
    N305     N        0.03239    0.93925    0.52258    1.000
    N306     N        0.01641    0.96119    0.59653    1.000
    N307     N        0.03369    0.00269    0.54238    1.000
    Si308    Si       0.99709    0.99193    0.62175    1.000
    N309     N        0.03815    0.84024    0.70568    1.000
    N310     N        0.03248    0.80708    0.64664    1.000
    Si311    Si       0.00969    0.81936    0.68110    1.000
    Si312    Si       0.04066    0.83585    0.74973    1.000
    Si313    Si       0.04264    0.97115    0.67208    1.000
    N314     N        0.02893    0.00608    0.65074    1.000
    N315     N        0.01155    0.94115    0.67834    1.000
    N316     N        0.99651    0.89796    0.62967    1.000
    Si317    Si       0.02988    0.91259    0.65134    1.000
    Si318    Si       0.00837    0.78231    0.78568    1.000
    N319     N        0.02358    0.84733    0.81701    1.000
    N320     N        0.00841    0.86622    0.75605    1.000
    N321     N        0.03900    0.79448    0.75766    1.000
    N322     N        0.02594    0.76476    0.82071    1.000
    Si323    Si       0.01339    0.87752    0.84729    1.000
    N324     N        0.01140    0.94306    0.84544    1.000
    Si325    Si       0.99579    0.93437    0.80385    1.000
    N326     N        0.03295    0.92826    0.78258    1.000
    Si327    Si       0.04093    0.89548    0.75704    1.000
    Si328    Si       0.00874    0.97988    0.86850    1.000
    Si329    Si       0.04051    0.78738    0.99046    1.000
    N330     N        0.99969    0.79078    0.97710    1.000
    N331     N        0.01916    0.85150    0.95015    1.000
    N332     N        0.99889    0.87551    0.88723    1.000
    N333     N        0.99572    0.76575    0.88997    1.000
    Si334    Si       0.02654    0.88497    0.92109    1.000
    Si335    Si       0.99570    0.00622    0.93121    1.000
    N336     N        0.03609    0.99794    0.94478    1.000
    Si337    Si       0.01868    0.93882    0.98415    1.000
    N338     N        0.02163    0.91857    0.94506    1.000
    N339     N        0.04789    0.99064    0.87844    1.000
    N340     N        0.98726    0.97096    0.90711    1.000
    Si341    Si       0.06382    0.09086    0.05336    1.000
    Si342    Si       0.05768    0.03498    0.10131    1.000
    Si343    Si       0.09934    0.02824    0.03881    1.000
    N344     N        0.07661    0.00802    0.07187    1.000
    N345     N        0.08293    0.12940    0.06761    1.000
    N346     N        0.10167    0.06902    0.05074    1.000
    N347     N        0.08307    0.01741    0.99852    1.000
    N348     N        0.06753    0.18224    0.01927    1.000
    Si349    Si       0.06995    0.22120    0.11023    1.000
    Si350    Si       0.05847    0.14996    0.09714    1.000
    N351     N        0.10108    0.24670    0.01969    1.000
    Si352    Si       0.10121    0.20700    0.00260    1.000
    Si353    Si       0.06495    0.14123    0.00428    1.000
    N354     N        0.05178    0.19102    0.08595    1.000
    N355     N        0.08752    0.04965    0.13204    1.000
    Si356    Si       0.07618    0.05730    0.17295    1.000
    N357     N        0.09204    0.02245    0.19904    1.000
    N358     N        0.09491    0.09593    0.18058    1.000
    Si359    Si       0.08369    0.01556    0.24191    1.000
    Si360    Si       0.07571    0.13298    0.17231    1.000
    N361     N        0.07523    0.16026    0.20834    1.000
    N362     N        0.06151    0.23920    0.21638    1.000
    Si363    Si       0.10325    0.16270    0.24045    1.000
    N364     N        0.06935    0.21463    0.15481    1.000
    N365     N        0.08314    0.14867    0.13260    1.000
    Si366    Si       0.10364    0.21967    0.18288    1.000
    Si367    Si       0.07846    0.06953    0.32608    1.000
    N368     N        0.09785    0.03089    0.33110    1.000
    N369     N        0.05765    0.06210    0.36372    1.000
    Si370    Si       0.06837    0.01872    0.36892    1.000
    N371     N        0.10530    0.04767    0.26497    1.000
    N372     N        0.08577    0.13549    0.27446    1.000
    N373     N        0.07503    0.19569    0.33077    1.000
    N374     N        0.09462    0.19788    0.26679    1.000
    Si375    Si       0.06739    0.17423    0.29521    1.000
    Si376    Si       0.06076    0.22518    0.25766    1.000
    Si377    Si       0.05246    0.21754    0.36051    1.000
    N378     N        0.06115    0.25688    0.28508    1.000
    N379     N        0.08477    0.12210    0.43008    1.000
    N380     N        0.08279    0.04469    0.45843    1.000
    Si381    Si       0.07145    0.08745    0.45379    1.000
    Si382    Si       0.06232    0.00921    0.44374    1.000
    N383     N        0.06695    0.10108    0.49550    1.000
    N384     N        0.09403    0.20907    0.45609    1.000
    Si385    Si       0.06063    0.15478    0.41065    1.000
    Si386    Si       0.05066    0.21007    0.46101    1.000
    N387     N        0.09989    0.17493    0.39421    1.000
    N388     N        0.07990    0.23593    0.38883    1.000
    N389     N        0.08142    0.05962    0.60127    1.000
    N390     N        0.06662    0.12469    0.61024    1.000
    N391     N        0.09179    0.03582    0.53056    1.000
    Si392    Si       0.08265    0.06617    0.55730    1.000
    Si393    Si       0.04801    0.08677    0.59938    1.000
    Si394    Si       0.09689    0.13547    0.58204    1.000
    N395     N        0.09451    0.21737    0.52461    1.000
    Si396    Si       0.07595    0.17918    0.51840    1.000
    N397     N        0.07278    0.15949    0.55570    1.000
    N398     N        0.06500    0.24105    0.59069    1.000
    Si399    Si       0.08388    0.24858    0.55205    1.000
    N400     N        0.06160    0.07167    0.67875    1.000
    N401     N        0.09017    0.10980    0.73551    1.000
    N402     N        0.08118    0.03490    0.73224    1.000
    Si403    Si       0.09142    0.07262    0.71154    1.000
    N404     N        0.09487    0.01935    0.64947    1.000
    Si405    Si       0.05513    0.04026    0.64613    1.000
    Si406    Si       0.04921    0.00716    0.73888    1.000
    N407     N        0.06197    0.17265    0.72717    1.000
    N408     N        0.07323    0.25774    0.66341    1.000
    Si409    Si       0.09377    0.14717    0.71378    1.000
    N410     N        0.05593    0.19350    0.63850    1.000
    N411     N        0.09518    0.14138    0.66935    1.000
    N412     N        0.09060    0.23820    0.73061    1.000
    Si413    Si       0.06273    0.15122    0.64394    1.000
    Si414    Si       0.07724    0.23395    0.62801    1.000
    N415     N        0.07153    0.07035    0.79278    1.000
    Si416    Si       0.08706    0.02812    0.79027    1.000
    N417     N        0.09398    0.02311    0.83398    1.000
    Si418    Si       0.05977    0.02822    0.86019    1.000
    Si419    Si       0.09937    0.10075    0.77907    1.000
    N420     N        0.08857    0.13462    0.80420    1.000
    Si421    Si       0.07132    0.21878    0.81380    1.000
    N422     N        0.10335    0.19937    0.79006    1.000
    N423     N        0.05327    0.18650    0.83695    1.000
    N424     N        0.08005    0.25855    0.82923    1.000
    Si425    Si       0.05378    0.25352    0.74906    1.000
    Si426    Si       0.09031    0.19951    0.74797    1.000
    Si427    Si       0.06976    0.25915    0.87189    1.000
    N428     N        0.07068    0.05832    0.89428    1.000
    N429     N        0.08876    0.12271    0.92000    1.000
    N430     N        0.10459    0.12752    0.98944    1.000
    Si431    Si       0.05000    0.19302    0.95699    1.000
    N432     N        0.09801    0.23269    0.89115    1.000
    Si433    Si       0.09752    0.24281    0.93453    1.000
    N434     N        0.09135    0.20776    0.96024    1.000
    N435     N        0.08470    0.29556    0.06991    1.000
    Si436    Si       0.07719    0.31510    0.10885    1.000
    N437     N        0.06125    0.34746    0.02883    1.000
    Si438    Si       0.10113    0.34905    0.01187    1.000
    N439     N        0.04769    0.34345    0.09581    1.000
    Si440    Si       0.06755    0.42329    0.07507    1.000
    N441     N        0.09318    0.41031    0.10723    1.000
    N442     N        0.08938    0.42178    0.03795    1.000
    Si443    Si       0.06015    0.50264    0.09301    1.000
    N444     N        0.09550    0.49671    0.11741    1.000
    N445     N        0.04743    0.46223    0.08261    1.000
    N446     N        0.06347    0.30356    0.14828    1.000
    Si447    Si       0.08519    0.27754    0.21230    1.000
    N448     N        0.08645    0.37019    0.17154    1.000
    N449     N        0.06075    0.31417    0.21844    1.000
    Si450    Si       0.06196    0.33500    0.17795    1.000
    Si451    Si       0.07146    0.40630    0.14727    1.000
    Si452    Si       0.10108    0.45868    0.20916    1.000
    N453     N        0.08500    0.44196    0.16705    1.000
    Si454    Si       0.09624    0.38557    0.21264    1.000
    N455     N        0.05767    0.38821    0.23628    1.000
    N456     N        0.05939    0.45654    0.22751    1.000
    N457     N        0.07656    0.35412    0.35543    1.000
    N458     N        0.08966    0.32531    0.29512    1.000
    Si459    Si       0.09664    0.27794    0.29396    1.000
    Si460    Si       0.05464    0.34148    0.31817    1.000
    Si461    Si       0.09037    0.32559    0.25171    1.000
    N462     N        0.10253    0.27392    0.33845    1.000
    N463     N        0.10908    0.28587    0.24864    1.000
    Si464    Si       0.07526    0.47075    0.26397    1.000
    N465     N        0.06524    0.46429    0.35338    1.000
    N466     N        0.07204    0.43580    0.29186    1.000
    Si467    Si       0.09677    0.44388    0.32740    1.000
    Si468    Si       0.10242    0.34275    0.48321    1.000
    Si469    Si       0.08744    0.27850    0.37735    1.000
    N470     N        0.06409    0.32211    0.47680    1.000
    Si471    Si       0.07252    0.33805    0.39553    1.000
    Si472    Si       0.06616    0.28053    0.49121    1.000
    N473     N        0.11005    0.36786    0.40901    1.000
    N474     N        0.04883    0.29848    0.38749    1.000
    Si475    Si       0.10319    0.39903    0.43843    1.000
    N476     N        0.06512    0.42103    0.43385    1.000
    Si477    Si       0.08118    0.49706    0.37474    1.000
    Si478    Si       0.05449    0.44352    0.47019    1.000
    N479     N        0.10408    0.38601    0.47859    1.000
    N480     N        0.09417    0.45113    0.49033    1.000
    N481     N        0.07318    0.34462    0.58488    1.000
    Si482    Si       0.10102    0.36325    0.55744    1.000
    N483     N        0.05277    0.27365    0.53223    1.000
    Si484    Si       0.06905    0.42790    0.58011    1.000
    N485     N        0.07861    0.46867    0.59031    1.000
    N486     N        0.09322    0.40628    0.55061    1.000
    Si487    Si       0.10486    0.49636    0.61039    1.000
    N488     N        0.05953    0.40527    0.61741    1.000
    Si489    Si       0.09505    0.32756    0.65971    1.000
    Si490    Si       0.08336    0.32044    0.73477    1.000
    N491     N        0.05419    0.32853    0.65121    1.000
    N492     N        0.10160    0.30537    0.69750    1.000
    N493     N        0.10346    0.37011    0.66714    1.000
    Si494    Si       0.10304    0.26048    0.69578    1.000
    N495     N        0.08408    0.46324    0.73278    1.000
    N496     N        0.04877    0.50488    0.68467    1.000
    Si497    Si       0.07208    0.40012    0.65895    1.000
    N498     N        0.08776    0.43934    0.67073    1.000
    Si499    Si       0.06049    0.46462    0.69676    1.000
    Si500    Si       0.08350    0.29431    0.80612    1.000
    N501     N        0.07124    0.29058    0.76353    1.000
    N502     N        0.05495    0.32076    0.82601    1.000
    N503     N        0.10389    0.34579    0.86743    1.000
    Si504    Si       0.06126    0.33431    0.86705    1.000
    N505     N        0.09566    0.47408    0.80161    1.000
    N506     N        0.08390    0.40845    0.78424    1.000
    N507     N        0.07017    0.42128    0.85124    1.000
    Si508    Si       0.06341    0.47419    0.77008    1.000
    Si509    Si       0.09758    0.43395    0.81999    1.000
    N510     N        0.06856    0.26875    0.95273    1.000
    N511     N        0.06023    0.29726    0.89128    1.000
    Si512    Si       0.08254    0.27685    0.99270    1.000
    Si513    Si       0.08619    0.42912    0.89067    1.000
    N514     N        0.06628    0.50332    0.92370    1.000
    N515     N        0.10036    0.38019    0.98383    1.000
    N516     N        0.09460    0.45022    0.97168    1.000
    Si517    Si       0.06237    0.46774    0.94871    1.000
    N518     N        0.05321    0.43613    0.91706    1.000
    Si519    Si       0.09956    0.50674    0.89526    1.000
    Si520    Si       0.08081    0.41708    0.99558    1.000
    Si521    Si       0.07311    0.60261    0.07220    1.000
    N522     N        0.06843    0.57687    0.10742    1.000
    N523     N        0.06457    0.51775    0.05066    1.000
    N524     N        0.07471    0.64419    0.08495    1.000
    N525     N        0.08658    0.70225    0.10617    1.000
    Si526    Si       0.05385    0.74391    0.04597    1.000
    N527     N        0.08924    0.75499    0.06680    1.000
    N528     N        0.05941    0.74826    0.00269    1.000
    Si529    Si       0.05049    0.67927    0.09064    1.000
    Si530    Si       0.10617    0.74050    0.10599    1.000
    Si531    Si       0.06248    0.54788    0.19307    1.000
    N532     N        0.09639    0.55251    0.22166    1.000
    N533     N        0.08016    0.61849    0.23146    1.000
    N534     N        0.09738    0.55308    0.16238    1.000
    N535     N        0.07621    0.62226    0.15598    1.000
    Si536    Si       0.09719    0.58753    0.13810    1.000
    Si537    Si       0.10109    0.63059    0.19392    1.000
    Si538    Si       0.05029    0.65213    0.23004    1.000
    Si539    Si       0.09422    0.70610    0.21641    1.000
    N540     N        0.08766    0.67169    0.19124    1.000
    N541     N        0.08310    0.74337    0.19685    1.000
    Si542    Si       0.05769    0.66190    0.15961    1.000
    N543     N        0.09293    0.57318    0.29022    1.000
    Si544    Si       0.07008    0.53912    0.30812    1.000
    N545     N        0.09386    0.52813    0.34613    1.000
    Si546    Si       0.08000    0.57918    0.25095    1.000
    N547     N        0.06192    0.51040    0.27782    1.000
    Si548    Si       0.09451    0.56495    0.37124    1.000
    Si549    Si       0.07218    0.69763    0.28878    1.000
    N550     N        0.09142    0.65997    0.30294    1.000
    Si551    Si       0.05743    0.64818    0.32525    1.000
    N552     N        0.07052    0.64760    0.36730    1.000
    N553     N        0.09854    0.73243    0.29132    1.000
    N554     N        0.06366    0.69301    0.24735    1.000
    N555     N        0.06096    0.51434    0.40817    1.000
    Si556    Si       0.09167    0.56071    0.48554    1.000
    Si557    Si       0.07253    0.61502    0.43860    1.000
    N558     N        0.06837    0.57377    0.45183    1.000
    N559     N        0.05349    0.57428    0.38124    1.000
    Si560    Si       0.04641    0.55321    0.41950    1.000
    N561     N        0.04124    0.68713    0.42372    1.000
    N562     N        0.08273    0.64949    0.46179    1.000
    N563     N        0.05653    0.71164    0.48575    1.000
    N564     N        0.08351    0.74539    0.40979    1.000
    Si565    Si       0.04990    0.67500    0.46402    1.000
    N566     N        0.08119    0.57823    0.52420    1.000
    Si567    Si       0.08488    0.55173    0.59568    1.000
    Si568    Si       0.08698    0.62311    0.60819    1.000
    N569     N        0.10523    0.58878    0.58769    1.000
    N570     N        0.04968    0.53822    0.57143    1.000
    N571     N        0.08560    0.51976    0.49382    1.000
    N572     N        0.08089    0.66236    0.59212    1.000
    Si573    Si       0.06416    0.68764    0.56158    1.000
    Si574    Si       0.08106    0.73934    0.61066    1.000
    N575     N        0.05458    0.72529    0.57829    1.000
    N576     N        0.09998    0.69117    0.53539    1.000
    Si577    Si       0.09684    0.71848    0.50190    1.000
    Si578    Si       0.08179    0.60459    0.71276    1.000
    Si579    Si       0.07744    0.53743    0.67768    1.000
    N580     N        0.06777    0.58255    0.67742    1.000
    N581     N        0.08380    0.52899    0.63373    1.000
    N582     N        0.10287    0.53723    0.71199    1.000
    N583     N        0.10129    0.75429    0.74461    1.000
    Si584    Si       0.05186    0.71506    0.68381    1.000
    Si585    Si       0.08148    0.67216    0.73628    1.000
    N586     N        0.08739    0.70228    0.70627    1.000
    N587     N        0.05741    0.64167    0.71439    1.000
    N588     N        0.05908    0.74015    0.64869    1.000
    N589     N        0.09087    0.61314    0.80929    1.000
    Si590    Si       0.05780    0.59486    0.78671    1.000
    N591     N        0.05444    0.51580    0.76580    1.000
    Si592    Si       0.05223    0.56333    0.85730    1.000
    Si593    Si       0.08812    0.54247    0.75419    1.000
    N594     N        0.07453    0.58284    0.74959    1.000
    Si595    Si       0.08344    0.63200    0.84824    1.000
    N596     N        0.05797    0.60599    0.87067    1.000
    N597     N        0.04688    0.56241    0.81400    1.000
    N598     N        0.05840    0.68520    0.77003    1.000
    N599     N        0.06061    0.66612    0.83774    1.000
    Si600    Si       0.08048    0.69183    0.80943    1.000
    N601     N        0.08955    0.72905    0.83151    1.000
    N602     N        0.08749    0.54505    0.87762    1.000
    Si603    Si       0.06649    0.57198    0.97101    1.000
    N604     N        0.05580    0.57101    0.92748    1.000
    Si605    Si       0.04965    0.61173    0.91406    1.000
    N606     N        0.05216    0.61205    0.98037    1.000
    Si607    Si       0.10370    0.56314    0.91641    1.000
    N608     N        0.08448    0.63634    0.92650    1.000
    N609     N        0.10719    0.56459    0.96317    1.000
    Si610    Si       0.07767    0.64618    0.97011    1.000
    Si611    Si       0.06705    0.72242    0.96761    1.000
    N612     N        0.05108    0.73786    0.92788    1.000
    N613     N        0.05117    0.68285    0.96831    1.000
    N614     N        0.07622    0.86210    0.06172    1.000
    Si615    Si       0.06946    0.84454    0.10207    1.000
    Si616    Si       0.07900    0.83742    0.02670    1.000
    N617     N        0.07397    0.93442    0.06011    1.000
    Si618    Si       0.08694    0.96744    0.08632    1.000
    Si619    Si       0.09879    0.90002    0.05263    1.000
    N620     N        0.05505    0.95740    0.00038    1.000
    N621     N        0.06735    0.86857    0.20394    1.000
    N622     N        0.04687    0.80583    0.17650    1.000
    Si623    Si       0.07086    0.88623    0.16492    1.000
    Si624    Si       0.08320    0.89072    0.23773    1.000
    N625     N        0.06383    0.96518    0.12324    1.000
    Si626    Si       0.06981    0.96372    0.16613    1.000
    N627     N        0.07524    0.86199    0.27148    1.000
    N628     N        0.06721    0.77616    0.34755    1.000
    N629     N        0.09415    0.85358    0.33886    1.000
    Si630    Si       0.08477    0.77181    0.30541    1.000
    Si631    Si       0.05504    0.87143    0.33952    1.000
    N632     N        0.04880    0.77789    0.28303    1.000
    Si633    Si       0.10342    0.84494    0.29700    1.000
    N634     N        0.08032    0.98826    0.28649    1.000
    N635     N        0.07168    0.92809    0.25594    1.000
    Si636    Si       0.10283    0.95591    0.26634    1.000
    Si637    Si       0.05312    0.94035    0.36154    1.000
    N638     N        0.05380    0.91249    0.32488    1.000
    N639     N        0.05150    0.98269    0.34828    1.000
    N640     N        0.09888    0.81618    0.39800    1.000
    Si641    Si       0.07136    0.83954    0.48572    1.000
    Si642    Si       0.09681    0.77698    0.38086    1.000
    N643     N        0.07347    0.85753    0.44365    1.000
    Si644    Si       0.06028    0.83587    0.40725    1.000
    N645     N        0.08645    0.93593    0.38837    1.000
    Si646    Si       0.07528    0.89786    0.46274    1.000
    Si647    Si       0.05429    0.95791    0.49056    1.000
    N648     N        0.09536    0.97761    0.44894    1.000
    N649     N        0.10492    0.00315    0.38786    1.000
    Si650    Si       0.07711    0.80835    0.57156    1.000
    N651     N        0.06506    0.84396    0.59348    1.000
    N652     N        0.07284    0.81432    0.52675    1.000
    N653     N        0.06782    0.88096    0.50411    1.000
    N654     N        0.09052    0.78311    0.61445    1.000
    Si655    Si       0.07650    0.88185    0.60897    1.000
    N656     N        0.08586    0.98042    0.58137    1.000
    N657     N        0.08993    0.96877    0.51360    1.000
    N658     N        0.06412    0.91127    0.57773    1.000
    Si659    Si       0.05705    0.94984    0.59806    1.000
    Si660    Si       0.07668    0.99722    0.54313    1.000
    Si661    Si       0.04832    0.90027    0.53762    1.000
    Si662    Si       0.06760    0.78191    0.65222    1.000
    Si663    Si       0.06530    0.77406    0.72900    1.000
    N664     N        0.08406    0.78864    0.69089    1.000
    Si665    Si       0.06601    0.86975    0.69038    1.000
    N666     N        0.05725    0.87925    0.64908    1.000
    N667     N        0.10637    0.85646    0.69230    1.000
    N668     N        0.10704    0.81769    0.74695    1.000
    N669     N        0.06087    0.97396    0.71022    1.000
    N670     N        0.06468    0.94405    0.64209    1.000
    N671     N        0.05666    0.90282    0.71751    1.000
    Si672    Si       0.08342    0.93879    0.71650    1.000
    N673     N        0.06852    0.86252    0.77261    1.000
    Si674    Si       0.06613    0.85717    0.81812    1.000
    N675     N        0.09566    0.79011    0.80879    1.000
    Si676    Si       0.06645    0.76697    0.83334    1.000
    N677     N        0.08104    0.94784    0.82763    1.000
    Si678    Si       0.05231    0.93069    0.85613    1.000
    Si679    Si       0.06953    0.95574    0.78810    1.000
    N680     N        0.06016    0.99627    0.77755    1.000
    N681     N        0.05549    0.88766    0.84749    1.000
    N682     N        0.09454    0.93870    0.75732    1.000
    N683     N        0.06603    0.78333    0.87464    1.000
    Si684    Si       0.06133    0.84279    0.95006    1.000
    N685     N        0.06948    0.86889    0.91668    1.000
    Si686    Si       0.07250    0.77583    0.91728    1.000
    N687     N        0.06404    0.80067    0.95476    1.000
    N688     N        0.07824    0.85779    0.98772    1.000
    N689     N        0.06411    0.93261    0.89832    1.000
    Si690    Si       0.09378    0.90370    0.90691    1.000
    N691     N        0.09583    0.97930    0.94032    1.000
    Si692    Si       0.05937    0.97382    0.91643    1.000
    Si693    Si       0.08900    0.97606    0.98354    1.000
    Si694    Si       0.12005    0.10634    0.06578    1.000
    N695     N        0.12952    0.10375    0.10880    1.000
    N696     N        0.15156    0.03582    0.10580    1.000
    N697     N        0.14051    0.01649    0.03521    1.000
    N698     N        0.15335    0.12637    0.04773    1.000
    N699     N        0.11091    0.23059    0.09088    1.000
    Si700    Si       0.14197    0.14131    0.00880    1.000
    N701     N        0.14816    0.16891    0.09957    1.000
    Si702    Si       0.14598    0.21135    0.11163    1.000
    N703     N        0.13652    0.18311    0.00861    1.000
    Si704    Si       0.12792    0.06356    0.12807    1.000
    Si705    Si       0.13495    0.10761    0.19702    1.000
    N706     N        0.15167    0.07632    0.22038    1.000
    N707     N        0.16685    0.06686    0.15477    1.000
    N708     N        0.16556    0.00839    0.19368    1.000
    N709     N        0.13921    0.14170    0.22335    1.000
    N710     N        0.15004    0.13517    0.16419    1.000
    Si711    Si       0.12685    0.14141    0.12720    1.000
    N712     N        0.13719    0.20412    0.15560    1.000
    Si713    Si       0.15099    0.17509    0.18926    1.000
    N714     N        0.12585    0.20035    0.21533    1.000
    Si715    Si       0.14705    0.06670    0.26433    1.000
    N716     N        0.15133    0.10765    0.27739    1.000
    Si717    Si       0.14925    0.09217    0.35477    1.000
    Si718    Si       0.11791    0.12334    0.30124    1.000
    N719     N        0.15483    0.04927    0.36452    1.000
    Si720    Si       0.13305    0.01426    0.35763    1.000
    N721     N        0.11139    0.09467    0.33214    1.000
    Si722    Si       0.11927    0.01421    0.29471    1.000
    N723     N        0.16135    0.03339    0.28762    1.000
    Si724    Si       0.14172    0.24930    0.33264    1.000
    N725     N        0.13238    0.24938    0.29087    1.000
    N726     N        0.12902    0.15613    0.32446    1.000
    N727     N        0.14621    0.20850    0.35243    1.000
    Si728    Si       0.13519    0.21650    0.25908    1.000
    Si729    Si       0.11022    0.18366    0.35292    1.000
    N730     N        0.16482    0.18111    0.27342    1.000
    Si731    Si       0.16278    0.18209    0.31809    1.000
    N732     N        0.14614    0.12037    0.38757    1.000
    N733     N        0.12633    0.08608    0.48632    1.000
    N734     N        0.13964    0.01433    0.48793    1.000
    Si735    Si       0.11143    0.04539    0.49190    1.000
    N736     N        0.14986    0.15533    0.43876    1.000
    Si737    Si       0.14520    0.16753    0.48042    1.000
    Si738    Si       0.11411    0.22992    0.48877    1.000
    N739     N        0.15011    0.22500    0.41817    1.000
    Si740    Si       0.11860    0.14140    0.41345    1.000
    N741     N        0.15244    0.21123    0.48293    1.000
    Si742    Si       0.10919    0.21343    0.41731    1.000
    N743     N        0.14181    0.02292    0.59650    1.000
    N744     N        0.10512    0.10351    0.55195    1.000
    Si745    Si       0.11660    0.04735    0.62097    1.000
    Si746    Si       0.10454    0.11438    0.50938    1.000
    N747     N        0.13338    0.14386    0.60554    1.000
    N748     N        0.10548    0.15607    0.49806    1.000
    N749     N        0.16118    0.03025    0.65742    1.000
    Si750    Si       0.12761    0.12302    0.64544    1.000
    N751     N        0.13704    0.06101    0.71317    1.000
    N752     N        0.13004    0.08155    0.64098    1.000
    Si753    Si       0.15808    0.07105    0.67357    1.000
    Si754    Si       0.12369    0.02235    0.73200    1.000
    N755     N        0.15900    0.11913    0.67783    1.000
    N756     N        0.12301    0.23895    0.62238    1.000
    Si757    Si       0.15545    0.22694    0.64901    1.000
    Si758    Si       0.15176    0.20107    0.70708    1.000
    N759     N        0.12215    0.17721    0.72650    1.000
    N760     N        0.14380    0.24489    0.68995    1.000
    N761     N        0.16082    0.18753    0.66587    1.000
    N762     N        0.14011    0.08280    0.78111    1.000
    Si763    Si       0.13155    0.01601    0.85394    1.000
    N764     N        0.12724    0.01672    0.77422    1.000
    Si765    Si       0.16038    0.04221    0.78890    1.000
    N766     N        0.12444    0.09846    0.86916    1.000
    N767     N        0.14899    0.23539    0.84063    1.000
    N768     N        0.15337    0.14481    0.80500    1.000
    N769     N        0.11973    0.17160    0.85631    1.000
    Si770    Si       0.11669    0.16565    0.81372    1.000
    N771     N        0.13389    0.03432    0.89491    1.000
    N772     N        0.13428    0.08107    0.94064    1.000
    Si773    Si       0.11233    0.07281    0.90228    1.000
    Si774    Si       0.12449    0.12329    0.94990    1.000
    N775     N        0.15920    0.01124    0.95555    1.000
    N776     N        0.16035    0.21067    0.90436    1.000
    Si777    Si       0.11502    0.13836    0.88576    1.000
    N778     N        0.14260    0.14798    0.91533    1.000
    Si779    Si       0.13241    0.21177    0.87303    1.000
    N780     N        0.14883    0.28354    0.06387    1.000
    Si781    Si       0.13656    0.32377    0.07556    1.000
    N782     N        0.13056    0.35147    0.04224    1.000
    N783     N        0.11802    0.32955    0.11369    1.000
    Si784    Si       0.11107    0.26178    0.06021    1.000
    Si785    Si       0.13102    0.43558    0.04429    1.000
    Si786    Si       0.13583    0.41544    0.11125    1.000
    N787     N        0.15207    0.40953    0.07201    1.000
    N788     N        0.12262    0.47740    0.05774    1.000
    N789     N        0.14928    0.43905    0.00563    1.000
    Si790    Si       0.13323    0.49777    0.09367    1.000
    N791     N        0.11635    0.35475    0.23487    1.000
    N792     N        0.13884    0.32464    0.17845    1.000
    Si793    Si       0.12351    0.35286    0.15025    1.000
    Si794    Si       0.15167    0.28412    0.19084    1.000
    Si795    Si       0.15417    0.34180    0.21577    1.000
    N796     N        0.11607    0.26164    0.18695    1.000
    Si797    Si       0.16132    0.41556    0.23130    1.000
    N798     N        0.12156    0.42044    0.21459    1.000
    N799     N        0.11958    0.49155    0.18486    1.000
    Si800    Si       0.10972    0.47125    0.14720    1.000
    N801     N        0.14481    0.45596    0.12434    1.000
    N802     N        0.14486    0.38790    0.14351    1.000
    Si803    Si       0.12745    0.33820    0.31437    1.000
    N804     N        0.15563    0.31372    0.29197    1.000
    N805     N        0.14338    0.33990    0.35539    1.000
    Si806    Si       0.15353    0.28008    0.26320    1.000
    Si807    Si       0.11566    0.37737    0.35908    1.000
    N808     N        0.12855    0.38191    0.31411    1.000
    N809     N        0.12462    0.47361    0.31813    1.000
    Si810    Si       0.14367    0.46331    0.28127    1.000
    N811     N        0.11605    0.42084    0.36205    1.000
    N812     N        0.11577    0.47318    0.24961    1.000
    N813     N        0.16281    0.42468    0.27555    1.000
    Si814    Si       0.13592    0.33440    0.42094    1.000
    N815     N        0.13847    0.32947    0.46246    1.000
    N816     N        0.11017    0.27214    0.49356    1.000
    N817     N        0.10733    0.30742    0.40433    1.000
    N818     N        0.13943    0.50399    0.45133    1.000
    N819     N        0.11959    0.48341    0.39058    1.000
    Si820    Si       0.11724    0.48893    0.48505    1.000
    Si821    Si       0.13652    0.44305    0.39207    1.000
    N822     N        0.13869    0.42511    0.43284    1.000
    Si823    Si       0.12801    0.29762    0.52705    1.000
    N824     N        0.14267    0.36306    0.57009    1.000
    Si825    Si       0.15078    0.33629    0.60301    1.000
    Si826    Si       0.13273    0.27789    0.60432    1.000
    N827     N        0.11582    0.27622    0.56227    1.000
    N828     N        0.10848    0.33547    0.52492    1.000
    N829     N        0.15107    0.42336    0.51960    1.000
    N830     N        0.14916    0.49026    0.51627    1.000
    Si831    Si       0.11057    0.41739    0.51023    1.000
    N832     N        0.12248    0.31140    0.62991    1.000
    Si833    Si       0.14422    0.38138    0.66579    1.000
    N834     N        0.14528    0.41701    0.64048    1.000
    Si835    Si       0.12757    0.45175    0.65795    1.000
    N836     N        0.14293    0.46721    0.69544    1.000
    N837     N        0.13898    0.48483    0.63182    1.000
    Si838    Si       0.12637    0.45331    0.73104    1.000
    Si839    Si       0.13794    0.33868    0.83937    1.000
    N840     N        0.14411    0.36778    0.80309    1.000
    N841     N        0.12569    0.30648    0.80917    1.000
    Si842    Si       0.14369    0.33031    0.77636    1.000
    Si843    Si       0.15262    0.27676    0.83020    1.000
    N844     N        0.11065    0.34785    0.75202    1.000
    N845     N        0.16193    0.30573    0.85936    1.000
    Si846    Si       0.11784    0.38705    0.77152    1.000
    N847     N        0.15865    0.49649    0.82749    1.000
    Si848    Si       0.13020    0.49735    0.79344    1.000
    N849     N        0.15036    0.47737    0.76045    1.000
    N850     N        0.13953    0.42865    0.83390    1.000
    Si851    Si       0.14839    0.46588    0.85593    1.000
    N852     N        0.13930    0.41355    0.74216    1.000
    Si853    Si       0.13256    0.36430    0.89353    1.000
    N854     N        0.13908    0.34372    0.93212    1.000
    Si855    Si       0.13469    0.30875    0.95667    1.000
    N856     N        0.13258    0.27043    0.93581    1.000
    N857     N        0.10722    0.31210    0.99005    1.000
    N858     N        0.10920    0.46867    0.87921    1.000
    Si859    Si       0.13227    0.47072    0.98164    1.000
    Si860    Si       0.12624    0.38378    0.94884    1.000
    N861     N        0.11317    0.39976    0.90925    1.000
    Si862    Si       0.13607    0.57876    0.07498    1.000
    N863     N        0.12284    0.53801    0.07149    1.000
    N864     N        0.13145    0.59792    0.11426    1.000
    N865     N        0.11184    0.60367    0.04957    1.000
    Si866    Si       0.10653    0.51294    0.03851    1.000
    Si867    Si       0.13231    0.63886    0.03344    1.000
    N868     N        0.12825    0.67720    0.05660    1.000
    N869     N        0.14645    0.72450    0.09805    1.000
    N870     N        0.14907    0.74694    0.03450    1.000
    Si871    Si       0.15503    0.71071    0.05800    1.000
    Si872    Si       0.11201    0.66798    0.09478    1.000
    Si873    Si       0.15584    0.62573    0.14253    1.000
    N874     N        0.13708    0.61236    0.17950    1.000
    Si875    Si       0.12460    0.53533    0.18863    1.000
    N876     N        0.14473    0.72341    0.16639    1.000
    Si877    Si       0.16144    0.70424    0.13248    1.000
    N878     N        0.13470    0.71224    0.23258    1.000
    N879     N        0.14189    0.66377    0.12515    1.000
    Si880    Si       0.11850    0.75808    0.17617    1.000
    N881     N        0.15015    0.61565    0.28921    1.000
    N882     N        0.14716    0.54516    0.30927    1.000
    Si883    Si       0.12849    0.58439    0.31041    1.000
    N884     N        0.11425    0.59511    0.34878    1.000
    Si885    Si       0.13353    0.51260    0.33678    1.000
    Si886    Si       0.13212    0.65307    0.30666    1.000
    N887     N        0.14070    0.65202    0.34980    1.000
    Si888    Si       0.13755    0.72323    0.27414    1.000
    N889     N        0.15532    0.69045    0.29693    1.000
    N890     N        0.16563    0.75608    0.26807    1.000
    N891     N        0.12059    0.55198    0.40299    1.000
    Si892    Si       0.13152    0.58539    0.42874    1.000
    N893     N        0.12929    0.58153    0.47262    1.000
    Si894    Si       0.15189    0.61285    0.49171    1.000
    Si895    Si       0.14528    0.51657    0.40610    1.000
    N896     N        0.10826    0.61967    0.41469    1.000
    Si897    Si       0.11045    0.63168    0.37296    1.000
    Si898    Si       0.15985    0.67849    0.37850    1.000
    Si899    Si       0.12062    0.72336    0.42488    1.000
    N900     N        0.15402    0.64431    0.46162    1.000
    N901     N        0.12486    0.70467    0.46529    1.000
    N902     N        0.12768    0.68358    0.40719    1.000
    Si903    Si       0.11896    0.65975    0.44205    1.000
    N904     N        0.15595    0.74636    0.41869    1.000
    N905     N        0.15320    0.55691    0.53972    1.000
    N906     N        0.13327    0.62480    0.52870    1.000
    Si907    Si       0.11938    0.58601    0.54679    1.000
    N908     N        0.11283    0.52378    0.57647    1.000
    Si909    Si       0.14725    0.51513    0.55235    1.000
    Si910    Si       0.13458    0.66706    0.54162    1.000
    N911     N        0.14746    0.66934    0.58429    1.000
    Si912    Si       0.11811    0.67523    0.61583    1.000
    N913     N        0.11520    0.71655    0.62440    1.000
    N914     N        0.10851    0.75896    0.50796    1.000
    N915     N        0.16107    0.54072    0.67626    1.000
    Si916    Si       0.14026    0.55900    0.70785    1.000
    N917     N        0.12546    0.59944    0.69780    1.000
    Si918    Si       0.14371    0.62383    0.66644    1.000
    N919     N        0.15109    0.70662    0.73940    1.000
    N920     N        0.14660    0.74293    0.68229    1.000
    Si921    Si       0.15182    0.73328    0.64155    1.000
    Si922    Si       0.15611    0.66399    0.73125    1.000
    N923     N        0.16199    0.65756    0.68935    1.000
    Si924    Si       0.12153    0.72868    0.71503    1.000
    N925     N        0.11685    0.63853    0.63785    1.000
    N926     N        0.11738    0.64767    0.74454    1.000
    N927     N        0.12252    0.53729    0.78091    1.000
    N928     N        0.15512    0.60462    0.78745    1.000
    Si929    Si       0.15949    0.56159    0.78099    1.000
    Si930    Si       0.12173    0.63274    0.78528    1.000
    N931     N        0.12085    0.67224    0.80655    1.000
    Si932    Si       0.14646    0.66989    0.84088    1.000
    Si933    Si       0.13134    0.74117    0.83612    1.000
    N934     N        0.14522    0.74620    0.79546    1.000
    N935     N        0.15238    0.71121    0.85948    1.000
    N936     N        0.12130    0.64406    0.86757    1.000
    N937     N        0.13317    0.59306    0.90812    1.000
    Si938    Si       0.13764    0.53473    0.96490    1.000
    N939     N        0.13126    0.52529    0.91989    1.000
    Si940    Si       0.12273    0.63430    0.90831    1.000
    N941     N        0.12333    0.51168    0.99901    1.000
    Si942    Si       0.13585    0.74663    0.94604    1.000
    N943     N        0.11379    0.65243    0.99234    1.000
    N944     N        0.10889    0.71579    0.96171    1.000
    Si945    Si       0.13514    0.68182    0.96852    1.000
    N946     N        0.14858    0.65919    0.93333    1.000
    N947     N        0.14655    0.79185    0.08426    1.000
    Si948    Si       0.12343    0.77854    0.05103    1.000
    N949     N        0.11174    0.80974    0.02223    1.000
    N950     N        0.10840    0.84076    0.11979    1.000
    Si951    Si       0.13191    0.87817    0.12199    1.000
    Si952    Si       0.13201    0.80286    0.12281    1.000
    Si953    Si       0.14956    0.92669    0.00506    1.000
    N954     N        0.11869    0.89943    0.01469    1.000
    N955     N        0.12995    0.96958    0.09037    1.000
    N956     N        0.12978    0.89898    0.08372    1.000
    Si957    Si       0.15305    0.93467    0.08117    1.000
    Si958    Si       0.15244    0.00486    0.07570    1.000
    N959     N        0.13733    0.78371    0.20488    1.000
    N960     N        0.11114    0.77026    0.13725    1.000
    N961     N        0.12311    0.90027    0.22379    1.000
    Si962    Si       0.13242    0.92175    0.18784    1.000
    Si963    Si       0.12502    0.99360    0.19928    1.000
    N964     N        0.10974    0.95848    0.18100    1.000
    N965     N        0.11263    0.89764    0.15657    1.000
    N966     N        0.12066    0.98746    0.24220    1.000
    N967     N        0.14492    0.86081    0.29091    1.000
    Si968    Si       0.15820    0.81564    0.28622    1.000
    N969     N        0.11495    0.80366    0.29535    1.000
    N970     N        0.13147    0.77116    0.35708    1.000
    Si971    Si       0.12010    0.84200    0.37097    1.000
    N972     N        0.16196    0.84501    0.35683    1.000
    Si973    Si       0.16338    0.87693    0.32792    1.000
    Si974    Si       0.15392    0.94691    0.31525    1.000
    Si975    Si       0.14888    0.89555    0.26024    1.000
    N976     N        0.13757    0.93212    0.27900    1.000
    N977     N        0.14401    0.91374    0.34073    1.000
    N978     N        0.14083    0.98657    0.32414    1.000
    Si979    Si       0.12037    0.86152    0.43943    1.000
    N980     N        0.11428    0.83187    0.48133    1.000
    N981     N        0.11852    0.87492    0.39814    1.000
    Si982    Si       0.15857    0.84106    0.48486    1.000
    N983     N        0.16400    0.85453    0.44336    1.000
    N984     N        0.15288    0.94832    0.49769    1.000
    Si985    Si       0.10984    0.96591    0.40950    1.000
    N986     N        0.11954    0.90165    0.46137    1.000
    Si987    Si       0.15851    0.91072    0.47795    1.000
    N988     N        0.14731    0.94284    0.40183    1.000
    Si989    Si       0.12078    0.97589    0.48383    1.000
    Si990    Si       0.12319    0.91334    0.37935    1.000
    N991     N        0.12243    0.80920    0.56708    1.000
    Si992    Si       0.13066    0.79982    0.61179    1.000
    Si993    Si       0.11414    0.80226    0.51573    1.000
    Si994    Si       0.16125    0.82745    0.55555    1.000
    Si995    Si       0.15154    0.87932    0.60625    1.000
    N996     N        0.16014    0.80791    0.51430    1.000
    N997     N        0.16189    0.76686    0.61555    1.000
    N998     N        0.16417    0.86894    0.56689    1.000
    Si999    Si       0.12998    0.98220    0.59215    1.000
    N1000    N        0.15314    0.96529    0.56279    1.000
    N1001    N        0.11538    0.89693    0.62069    1.000
    N1002    N        0.14771    0.83728    0.62672    1.000
    N1003    N        0.15526    0.80973    0.69282    1.000
    Si1004   Si       0.11406    0.81616    0.70403    1.000
    Si1005   Si       0.13027    0.99783    0.66427    1.000
    Si1006   Si       0.13589    0.88614    0.70400    1.000
    N1007    N        0.11375    0.92185    0.69105    1.000
    Si1008   Si       0.10863    0.93244    0.64857    1.000
    N1009    N        0.13560    0.96451    0.63477    1.000
    N1010    N        0.13642    0.99002    0.70583    1.000
    N1011    N        0.14244    0.77857    0.85448    1.000
    Si1012   Si       0.13229    0.87089    0.85190    1.000
    Si1013   Si       0.12791    0.81234    0.82932    1.000
    Si1014   Si       0.12212    0.78240    0.77386    1.000
    N1015    N        0.15473    0.81176    0.79307    1.000
    Si1016   Si       0.11330    0.85331    0.77046    1.000
    N1017    N        0.11089    0.85473    0.81775    1.000
    N1018    N        0.13155    0.83416    0.87307    1.000
    N1019    N        0.13550    0.88348    0.74856    1.000
    Si1020   Si       0.13575    0.92523    0.76277    1.000
    N1021    N        0.14393    0.92676    0.80424    1.000
    Si1022   Si       0.12011    0.93858    0.83908    1.000
    N1023    N        0.13866    0.97220    0.85731    1.000
    N1024    N        0.11745    0.90708    0.86968    1.000
    Si1025   Si       0.14235    0.79638    0.89358    1.000
    N1026    N        0.15255    0.77140    0.97543    1.000
    N1027    N        0.14643    0.84645    0.97115    1.000
    N1028    N        0.11632    0.77202    0.91836    1.000
    Si1029   Si       0.11493    0.87680    0.97768    1.000
    Si1030   Si       0.14429    0.80977    0.99354    1.000
    Si1031   Si       0.16061    0.90947    0.93494    1.000
    N1032    N        0.11801    0.90362    0.94300    1.000
    N1033    N        0.12890    0.95870    0.98650    1.000
    Si1034   Si       0.13913    0.97586    0.94695    1.000
    N1035    N        0.19497    0.11510    0.10865    1.000
    Si1036   Si       0.22492    0.08872    0.09169    1.000
    Si1037   Si       0.22134    0.07507    0.01021    1.000
    Si1038   Si       0.17023    0.20952    0.00578    1.000
    N1039    N        0.21432    0.16459    0.07129    1.000
    N1040    N        0.18718    0.22342    0.04292    1.000
    Si1041   Si       0.17766    0.14411    0.07973    1.000
    N1042    N        0.17673    0.24209    0.10957    1.000
    N1043    N        0.20254    0.17754    0.00315    1.000
    Si1044   Si       0.18266    0.25684    0.06998    1.000
    N1045    N        0.21592    0.05323    0.21126    1.000
    Si1046   Si       0.18820    0.03621    0.12860    1.000
    Si1047   Si       0.18115    0.10901    0.14866    1.000
    Si1048   Si       0.17446    0.04996    0.19546    1.000
    N1049    N        0.21252    0.11646    0.17772    1.000
    N1050    N        0.21043    0.12445    0.24495    1.000
    Si1051   Si       0.22693    0.09577    0.21472    1.000
    Si1052   Si       0.22304    0.15816    0.17937    1.000
    Si1053   Si       0.19800    0.22973    0.20678    1.000
    N1054    N        0.19357    0.18797    0.19448    1.000
    N1055    N        0.17263    0.23894    0.24545    1.000
    Si1056   Si       0.19844    0.05405    0.35902    1.000
    N1057    N        0.19597    0.09592    0.34972    1.000
    N1058    N        0.21658    0.02830    0.33006    1.000
    Si1059   Si       0.22005    0.13261    0.35610    1.000
    N1060    N        0.22557    0.01094    0.27021    1.000
    Si1061   Si       0.22264    0.20043    0.33765    1.000
    Si1062   Si       0.16957    0.14000    0.25457    1.000
    N1063    N        0.19304    0.22302    0.31314    1.000
    N1064    N        0.19984    0.16389    0.33303    1.000
    Si1065   Si       0.19623    0.21193    0.27116    1.000
    N1066    N        0.19611    0.02379    0.45008    1.000
    N1067    N        0.17661    0.09191    0.43796    1.000
    Si1068   Si       0.20468    0.06060    0.42969    1.000
    N1069    N        0.21605    0.04013    0.39398    1.000
    Si1070   Si       0.16633    0.09505    0.47954    1.000
    Si1071   Si       0.17902    0.13007    0.41743    1.000
    Si1072   Si       0.18157    0.02413    0.48949    1.000
    Si1073   Si       0.17285    0.22941    0.38080    1.000
    Si1074   Si       0.17760    0.23149    0.45238    1.000
    N1075    N        0.21312    0.20445    0.44612    1.000
    N1076    N        0.21520    0.14702    0.39805    1.000
    N1077    N        0.21418    0.21492    0.37749    1.000
    N1078    N        0.19181    0.06447    0.50281    1.000
    N1079    N        0.19575    0.13333    0.56245    1.000
    Si1080   Si       0.18157    0.02382    0.61970    1.000
    Si1081   Si       0.20318    0.14217    0.52192    1.000
    Si1082   Si       0.17597    0.15605    0.59352    1.000
    N1083    N        0.18748    0.19809    0.58755    1.000
    N1084    N        0.21047    0.25082    0.54816    1.000
    Si1085   Si       0.21633    0.20920    0.55494    1.000
    N1086    N        0.21772    0.18253    0.51896    1.000
    N1087    N        0.17093    0.13473    0.49552    1.000
    N1088    N        0.21469    0.04934    0.62184    1.000
    N1089    N        0.19941    0.07145    0.69263    1.000
    Si1090   Si       0.17884    0.07607    0.73278    1.000
    N1091    N        0.18668    0.11643    0.74607    1.000
    Si1092   Si       0.22156    0.22292    0.72768    1.000
    N1093    N        0.18730    0.19534    0.73020    1.000
    Si1094   Si       0.20333    0.15498    0.73306    1.000
    Si1095   Si       0.18568    0.15270    0.66550    1.000
    N1096    N        0.20239    0.14319    0.62681    1.000
    N1097    N        0.22027    0.15226    0.69374    1.000
    Si1098   Si       0.20570    0.03128    0.85372    1.000
    N1099    N        0.20690    0.11677    0.81240    1.000
    N1100    N        0.19113    0.04227    0.75986    1.000
    Si1101   Si       0.17227    0.11216    0.78656    1.000
    N1102    N        0.16729    0.03185    0.83128    1.000
    Si1103   Si       0.22025    0.01183    0.75055    1.000
    N1104    N        0.21987    0.07177    0.86128    1.000
    N1105    N        0.19489    0.19320    0.80749    1.000
    Si1106   Si       0.19209    0.22872    0.83080    1.000
    Si1107   Si       0.18831    0.15522    0.82681    1.000
    N1108    N        0.19905    0.16301    0.86818    1.000
    Si1109   Si       0.17388    0.08123    0.96039    1.000
    N1110    N        0.19828    0.06546    0.92673    1.000
    Si1111   Si       0.17060    0.03214    0.91767    1.000
    N1112    N        0.16375    0.12387    0.97491    1.000
    N1113    N        0.18226    0.06093    0.99705    1.000
    Si1114   Si       0.16749    0.01741    0.99919    1.000
    N1115    N        0.20965    0.15824    0.93505    1.000
    Si1116   Si       0.16694    0.24336    0.93018    1.000
    Si1117   Si       0.20390    0.14404    0.97666    1.000
    Si1118   Si       0.18002    0.17148    0.90768    1.000
    N1119    N        0.17092    0.24002    0.97527    1.000
    N1120    N        0.17682    0.34162    0.08395    1.000
    Si1121   Si       0.20756    0.33820    0.11512    1.000
    Si1122   Si       0.16918    0.37215    0.05508    1.000
    N1123    N        0.22199    0.27654    0.06607    1.000
    N1124    N        0.19744    0.38412    0.02383    1.000
    N1125    N        0.22015    0.45300    0.09727    1.000
    N1126    N        0.17572    0.50362    0.10015    1.000
    N1127    N        0.22370    0.30001    0.13170    1.000
    N1128    N        0.19957    0.35010    0.15668    1.000
    Si1129   Si       0.21438    0.28676    0.23198    1.000
    N1130    N        0.17216    0.30072    0.22828    1.000
    N1131    N        0.17652    0.37934    0.21333    1.000
    N1132    N        0.18712    0.26099    0.17651    1.000
    Si1133   Si       0.20342    0.26083    0.13813    1.000
    Si1134   Si       0.18771    0.46804    0.12183    1.000
    N1135    N        0.20364    0.48587    0.16138    1.000
    N1136    N        0.18872    0.44536    0.21885    1.000
    N1137    N        0.21288    0.41448    0.15693    1.000
    Si1138   Si       0.21631    0.44933    0.18395    1.000
    Si1139   Si       0.18107    0.38648    0.17018    1.000
    N1140    N        0.20474    0.31582    0.34391    1.000
    Si1141   Si       0.19649    0.32496    0.30163    1.000
    N1142    N        0.19824    0.36766    0.30305    1.000
    N1143    N        0.21971    0.29727    0.27638    1.000
    Si1144   Si       0.17090    0.30899    0.36930    1.000
    N1145    N        0.16480    0.26783    0.36382    1.000
    Si1146   Si       0.20371    0.46765    0.25296    1.000
    N1147    N        0.19445    0.41936    0.33571    1.000
    N1148    N        0.17890    0.49051    0.27797    1.000
    Si1149   Si       0.20602    0.45122    0.36376    1.000
    Si1150   Si       0.16931    0.39848    0.30873    1.000
    N1151    N        0.18548    0.27226    0.45459    1.000
    Si1152   Si       0.20918    0.30468    0.43252    1.000
    N1153    N        0.20984    0.32690    0.47253    1.000
    N1154    N        0.17648    0.32217    0.40911    1.000
    Si1155   Si       0.17137    0.30408    0.47833    1.000
    N1156    N        0.18887    0.46297    0.46929    1.000
    N1157    N        0.17883    0.44890    0.39579    1.000
    N1158    N        0.21457    0.40583    0.43581    1.000
    Si1159   Si       0.18031    0.43419    0.43673    1.000
    Si1160   Si       0.19998    0.29225    0.55743    1.000
    N1161    N        0.20025    0.37924    0.52268    1.000
    N1162    N        0.16808    0.29972    0.58842    1.000
    N1163    N        0.17004    0.29786    0.52112    1.000
    N1164    N        0.18113    0.41683    0.58156    1.000
    Si1165   Si       0.20025    0.45565    0.57369    1.000
    N1166    N        0.21292    0.45727    0.53108    1.000
    Si1167   Si       0.17557    0.45674    0.50902    1.000
    N1168    N        0.17661    0.49148    0.57760    1.000
    Si1169   Si       0.16759    0.39380    0.54778    1.000
    Si1170   Si       0.18129    0.49963    0.61984    1.000
    Si1171   Si       0.17991    0.39996    0.61945    1.000
    N1172    N        0.18105    0.31660    0.69210    1.000
    Si1173   Si       0.19609    0.34951    0.66668    1.000
    Si1174   Si       0.19731    0.33602    0.72762    1.000
    Si1175   Si       0.18006    0.27377    0.69036    1.000
    N1176    N        0.16763    0.36033    0.63434    1.000
    N1177    N        0.20080    0.26149    0.72490    1.000
    N1178    N        0.18900    0.25711    0.64910    1.000
    N1179    N        0.17737    0.38087    0.69388    1.000
    Si1180   Si       0.17137    0.49962    0.68317    1.000
    N1181    N        0.19599    0.47735    0.65616    1.000
    Si1182   Si       0.18113    0.40348    0.73228    1.000
    N1183    N        0.20826    0.43785    0.73027    1.000
    N1184    N        0.20030    0.50437    0.71692    1.000
    N1185    N        0.21846    0.40535    0.63994    1.000
    Si1186   Si       0.20341    0.27577    0.76589    1.000
    N1187    N        0.19394    0.26805    0.81012    1.000
    N1188    N        0.19548    0.36997    0.75536    1.000
    N1189    N        0.17569    0.31075    0.75870    1.000
    N1190    N        0.21212    0.33696    0.82861    1.000
    Si1191   Si       0.21600    0.36485    0.79428    1.000
    Si1192   Si       0.19392    0.33372    0.86830    1.000
    N1193    N        0.16523    0.36917    0.86462    1.000
    N1194    N        0.20664    0.40181    0.81819    1.000
    N1195    N        0.21623    0.48449    0.78484    1.000
    Si1196   Si       0.19264    0.47612    0.74780    1.000
    N1197    N        0.22079    0.50568    0.85327    1.000
    Si1198   Si       0.16607    0.39649    0.82916    1.000
    Si1199   Si       0.18379    0.34927    0.95098    1.000
    N1200    N        0.20685    0.33970    0.91019    1.000
    Si1201   Si       0.19714    0.27561    0.97364    1.000
    N1202    N        0.20207    0.27240    0.93136    1.000
    N1203    N        0.17503    0.31295    0.97424    1.000
    N1204    N        0.22487    0.48960    0.92684    1.000
    Si1205   Si       0.20531    0.47984    0.96707    1.000
    N1206    N        0.21646    0.44141    0.98669    1.000
    Si1207   Si       0.18295    0.41376    0.99291    1.000
    N1208    N        0.17770    0.46874    0.88791    1.000
    Si1209   Si       0.22261    0.47247    0.88507    1.000
    Si1210   Si       0.16992    0.50421    0.91407    1.000
    N1211    N        0.16891    0.39132    0.95805    1.000
    N1212    N        0.16479    0.48672    0.95452    1.000
    Si1213   Si       0.20440    0.59991    0.05218    1.000
    Si1214   Si       0.20022    0.53528    0.08582    1.000
    N1215    N        0.17879    0.56998    0.07113    1.000
    N1216    N        0.17641    0.63056    0.03818    1.000
    N1217    N        0.22055    0.58462    0.01520    1.000
    Si1218   Si       0.19503    0.66819    0.02462    1.000
    N1219    N        0.19575    0.69589    0.05962    1.000
    N1220    N        0.21486    0.75806    0.08322    1.000
    N1221    N        0.16544    0.54912    0.17981    1.000
    N1222    N        0.22139    0.54734    0.12394    1.000
    Si1223   Si       0.22161    0.59178    0.12452    1.000
    Si1224   Si       0.17461    0.59145    0.18759    1.000
    N1225    N        0.18583    0.61505    0.22215    1.000
    Si1226   Si       0.20285    0.53095    0.16302    1.000
    N1227    N        0.19453    0.60744    0.15211    1.000
    Si1228   Si       0.21163    0.64887    0.22011    1.000
    N1229    N        0.20338    0.70573    0.12924    1.000
    Si1230   Si       0.16694    0.71234    0.20257    1.000
    N1231    N        0.19464    0.67916    0.19295    1.000
    N1232    N        0.19466    0.74821    0.20807    1.000
    Si1233   Si       0.18362    0.60006    0.26293    1.000
    Si1234   Si       0.18248    0.53180    0.28877    1.000
    Si1235   Si       0.20553    0.52714    0.35486    1.000
    N1236    N        0.21596    0.54121    0.31366    1.000
    N1237    N        0.18766    0.55565    0.25178    1.000
    N1238    N        0.21928    0.60194    0.28843    1.000
    N1239    N        0.16586    0.51531    0.36571    1.000
    N1240    N        0.17495    0.71424    0.35848    1.000
    N1241    N        0.20982    0.66117    0.32594    1.000
    Si1242   Si       0.19086    0.69970    0.31921    1.000
    N1243    N        0.21912    0.73046    0.30784    1.000
    N1244    N        0.21666    0.66120    0.25906    1.000
    Si1245   Si       0.22353    0.65340    0.36519    1.000
    Si1246   Si       0.20619    0.57262    0.41609    1.000
    N1247    N        0.17007    0.59873    0.41395    1.000
    N1248    N        0.18546    0.53433    0.42750    1.000
    N1249    N        0.20438    0.53134    0.49115    1.000
    Si1250   Si       0.18175    0.50791    0.46217    1.000
    N1251    N        0.22363    0.73502    0.42551    1.000
    N1252    N        0.19412    0.66052    0.39757    1.000
    Si1253   Si       0.18892    0.75206    0.44388    1.000
    N1254    N        0.18310    0.73539    0.48498    1.000
    Si1255   Si       0.16501    0.75507    0.37602    1.000
    Si1256   Si       0.18623    0.63638    0.43327    1.000
    N1257    N        0.20276    0.68103    0.45598    1.000
    Si1258   Si       0.22617    0.69124    0.41845    1.000
    Si1259   Si       0.16590    0.69322    0.47669    1.000
    Si1260   Si       0.19207    0.56208    0.52162    1.000
    N1261    N        0.21987    0.56134    0.55350    1.000
    N1262    N        0.20181    0.53712    0.62216    1.000
    N1263    N        0.19148    0.59946    0.49958    1.000
    N1264    N        0.16670    0.68583    0.52005    1.000
    Si1265   Si       0.19791    0.72127    0.52727    1.000
    Si1266   Si       0.18462    0.68746    0.59532    1.000
    N1267    N        0.19294    0.72198    0.57210    1.000
    N1268    N        0.21436    0.65354    0.59333    1.000
    Si1269   Si       0.20921    0.62418    0.62601    1.000
    Si1270   Si       0.19125    0.56350    0.65244    1.000
    Si1271   Si       0.20870    0.54571    0.72204    1.000
    N1272    N        0.17549    0.60243    0.64293    1.000
    N1273    N        0.17115    0.56096    0.73806    1.000
    N1274    N        0.21873    0.57053    0.68446    1.000
    Si1275   Si       0.22157    0.68170    0.74519    1.000
    Si1276   Si       0.19446    0.67960    0.67149    1.000
    N1277    N        0.21789    0.69513    0.70290    1.000
    N1278    N        0.17913    0.69882    0.63706    1.000
    N1279    N        0.19758    0.54961    0.80005    1.000
    Si1280   Si       0.19924    0.50907    0.81703    1.000
    Si1281   Si       0.22316    0.54582    0.87232    1.000
    Si1282   Si       0.19146    0.63149    0.79077    1.000
    N1283    N        0.18594    0.65751    0.82525    1.000
    N1284    N        0.21090    0.71861    0.76815    1.000
    Si1285   Si       0.21602    0.67751    0.84683    1.000
    Si1286   Si       0.17425    0.73537    0.76234    1.000
    N1287    N        0.19024    0.65414    0.75437    1.000
    Si1288   Si       0.17123    0.57587    0.92247    1.000
    N1289    N        0.19989    0.60967    0.92544    1.000
    N1290    N        0.19011    0.54118    0.90098    1.000
    Si1291   Si       0.21074    0.55317    0.98537    1.000
    N1292    N        0.17311    0.55951    0.96304    1.000
    N1293    N        0.21909    0.51112    0.99425    1.000
    N1294    N        0.17022    0.68969    0.99520    1.000
    Si1295   Si       0.19716    0.71084    0.96457    1.000
    N1296    N        0.21546    0.74058    0.99126    1.000
    Si1297   Si       0.17921    0.71827    0.89290    1.000
    N1298    N        0.16960    0.72504    0.93344    1.000
    N1299    N        0.21694    0.67440    0.95077    1.000
    N1300    N        0.20928    0.75233    0.88860    1.000
    Si1301   Si       0.19085    0.65188    0.92111    1.000
    N1302    N        0.19754    0.67739    0.88767    1.000
    N1303    N        0.18216    0.80722    0.01686    1.000
    Si1304   Si       0.21384    0.82776    0.03609    1.000
    Si1305   Si       0.19041    0.79020    0.09974    1.000
    N1306    N        0.21222    0.82382    0.08040    1.000
    N1307    N        0.21654    0.87140    0.02761    1.000
    Si1308   Si       0.18090    0.76396    0.00784    1.000
    Si1309   Si       0.21698    0.97356    0.10669    1.000
    N1310    N        0.19560    0.99456    0.07272    1.000
    N1311    N        0.18859    0.93974    0.10516    1.000
    Si1312   Si       0.20358    0.96568    0.04158    1.000
    N1313    N        0.20257    0.99419    0.00810    1.000
    Si1314   Si       0.20350    0.90241    0.11490    1.000
    N1315    N        0.16885    0.94078    0.03987    1.000
    N1316    N        0.17321    0.87367    0.12867    1.000
    Si1317   Si       0.21024    0.84262    0.22741    1.000
    Si1318   Si       0.19367    0.84330    0.14973    1.000
    N1319    N        0.19869    0.86374    0.18820    1.000
    N1320    N        0.17436    0.80530    0.13642    1.000
    Si1321   Si       0.16943    0.77722    0.22969    1.000
    N1322    N        0.17929    0.81639    0.24736    1.000
    Si1323   Si       0.19273    0.97724    0.18208    1.000
    Si1324   Si       0.20725    0.90637    0.18714    1.000
    N1325    N        0.20059    0.99583    0.14138    1.000
    N1326    N        0.17537    0.93689    0.18688    1.000
    N1327    N        0.18876    0.80120    0.31244    1.000
    Si1328   Si       0.19645    0.81751    0.35156    1.000
    Si1329   Si       0.20155    0.76618    0.29086    1.000
    N1330    N        0.20649    0.89502    0.32786    1.000
    N1331    N        0.19537    0.95914    0.30691    1.000
    Si1332   Si       0.18969    0.00443    0.30162    1.000
    N1333    N        0.18997    0.88744    0.24768    1.000
    Si1334   Si       0.22616    0.93074    0.31624    1.000
    N1335    N        0.20025    0.78244    0.37745    1.000
    N1336    N        0.20105    0.78941    0.46393    1.000
    Si1337   Si       0.20243    0.87553    0.43688    1.000
    N1338    N        0.21237    0.96577    0.40980    1.000
    N1339    N        0.21017    0.89375    0.39638    1.000
    N1340    N        0.19584    0.91728    0.45303    1.000
    Si1341   Si       0.18671    0.93139    0.41090    1.000
    Si1342   Si       0.22422    0.00540    0.42269    1.000
    N1343    N        0.19517    0.80931    0.57241    1.000
    Si1344   Si       0.19520    0.76525    0.58278    1.000
    Si1345   Si       0.18619    0.77380    0.50269    1.000
    N1346    N        0.21441    0.76435    0.53339    1.000
    N1347    N        0.16888    0.87814    0.50385    1.000
    Si1348   Si       0.19174    0.88860    0.54011    1.000
    N1349    N        0.20507    0.99496    0.51498    1.000
    N1350    N        0.20859    0.92994    0.53806    1.000
    Si1351   Si       0.17903    0.96211    0.52946    1.000
    N1352    N        0.18120    0.90892    0.62079    1.000
    N1353    N        0.20941    0.82333    0.66025    1.000
    Si1354   Si       0.17923    0.77278    0.69845    1.000
    N1355    N        0.17741    0.77269    0.74186    1.000
    N1356    N        0.17469    0.87636    0.68812    1.000
    Si1357   Si       0.16944    0.83966    0.66367    1.000
    N1358    N        0.21841    0.76186    0.68173    1.000
    N1359    N        0.16976    0.94268    0.74356    1.000
    N1360    N        0.19833    0.98409    0.62224    1.000
    Si1361   Si       0.20808    0.90678    0.68855    1.000
    Si1362   Si       0.17602    0.94861    0.63437    1.000
    N1363    N        0.18439    0.94261    0.67721    1.000
    Si1364   Si       0.17454    0.96926    0.70815    1.000
    N1365    N        0.21238    0.99214    0.71287    1.000
    Si1366   Si       0.19109    0.79951    0.77331    1.000
    N1367    N        0.21020    0.82420    0.86501    1.000
    N1368    N        0.21498    0.83364    0.75189    1.000
    N1369    N        0.17474    0.88065    0.84320    1.000
    N1370    N        0.21763    0.77951    0.80136    1.000
    Si1371   Si       0.18278    0.91316    0.81752    1.000
    N1372    N        0.19818    0.94638    0.84368    1.000
    N1373    N        0.21044    0.90310    0.78540    1.000
    Si1374   Si       0.21111    0.93736    0.75553    1.000
    N1375    N        0.21706    0.97524    0.77495    1.000
    Si1376   Si       0.20253    0.86594    0.87348    1.000
    N1377    N        0.17527    0.80545    0.91873    1.000
    Si1378   Si       0.21190    0.79490    0.89927    1.000
    Si1379   Si       0.17591    0.84228    0.94131    1.000
    N1380    N        0.21402    0.84985    0.96110    1.000
    N1381    N        0.17900    0.87401    0.91139    1.000
    N1382    N        0.16184    0.94928    0.91791    1.000
    N1383    N        0.19661    0.00525    0.89113    1.000
    N1384    N        0.17831    0.90865    0.97592    1.000
    Si1385   Si       0.21302    0.88412    0.98763    1.000
    Si1386   Si       0.17548    0.96810    0.88000    1.000
    N1387    N        0.26030    0.11748    0.09670    1.000
    Si1388   Si       0.27122    0.10958    0.05285    1.000
    N1389    N        0.23153    0.08863    0.04983    1.000
    N1390    N        0.25275    0.04567    0.99902    1.000
    N1391    N        0.22444    0.05474    0.11903    1.000
    Si1392   Si       0.26734    0.24708    0.00266    1.000
    N1393    N        0.25688    0.21765    0.03325    1.000
    Si1394   Si       0.24326    0.15622    0.10227    1.000
    N1395    N        0.27478    0.18437    0.09309    1.000
    Si1396   Si       0.21965    0.19431    0.03989    1.000
    N1397    N        0.28193    0.08145    0.15570    1.000
    N1398    N        0.27322    0.02276    0.16868    1.000
    N1399    N        0.27964    0.02710    0.23245    1.000
    Si1400   Si       0.26362    0.04887    0.13436    1.000
    N1401    N        0.27053    0.09368    0.21969    1.000
    Si1402   Si       0.23593    0.01811    0.22976    1.000
    Si1403   Si       0.26535    0.20516    0.13104    1.000
    N1404    N        0.25617    0.15461    0.20704    1.000
    N1405    N        0.23706    0.17257    0.14176    1.000
    N1406    N        0.24194    0.24067    0.12984    1.000
    N1407    N        0.23261    0.24715    0.22731    1.000
    N1408    N        0.26066    0.06705    0.28965    1.000
    Si1409   Si       0.25044    0.02757    0.29974    1.000
    Si1410   Si       0.27933    0.09416    0.26342    1.000
    N1411    N        0.26126    0.12511    0.34553    1.000
    Si1412   Si       0.25919    0.02717    0.36318    1.000
    N1413    N        0.28150    0.00969    0.32688    1.000
    N1414    N        0.26565    0.13468    0.27618    1.000
    Si1415   Si       0.26350    0.22723    0.25079    1.000
    N1416    N        0.26368    0.19174    0.32483    1.000
    N1417    N        0.27283    0.24787    0.28940    1.000
    Si1418   Si       0.27750    0.15032    0.31469    1.000
    N1419    N        0.23524    0.19525    0.26250    1.000
    Si1420   Si       0.24303    0.15552    0.24875    1.000
    N1421    N        0.24130    0.07765    0.44168    1.000
    N1422    N        0.27532    0.06465    0.37745    1.000
    Si1423   Si       0.26937    0.13148    0.49606    1.000
    N1424    N        0.26761    0.21792    0.49589    1.000
    Si1425   Si       0.22985    0.18715    0.40998    1.000
    N1426    N        0.25736    0.15817    0.46248    1.000
    N1427    N        0.27330    0.19161    0.40864    1.000
    Si1428   Si       0.23519    0.19299    0.48035    1.000
    Si1429   Si       0.24876    0.04793    0.59572    1.000
    N1430    N        0.26539    0.12233    0.59068    1.000
    N1431    N        0.23833    0.11415    0.51896    1.000
    Si1432   Si       0.23252    0.11264    0.56443    1.000
    N1433    N        0.23448    0.07010    0.56208    1.000
    Si1434   Si       0.23196    0.06961    0.51831    1.000
    N1435    N        0.26252    0.04255    0.50261    1.000
    N1436    N        0.25763    0.19849    0.57075    1.000
    Si1437   Si       0.27651    0.19870    0.61247    1.000
    N1438    N        0.26324    0.10016    0.73443    1.000
    N1439    N        0.25468    0.03784    0.67213    1.000
    N1440    N        0.25044    0.10213    0.65694    1.000
    Si1441   Si       0.22660    0.06631    0.65884    1.000
    Si1442   Si       0.27664    0.10484    0.69267    1.000
    N1443    N        0.26080    0.02822    0.74239    1.000
    Si1444   Si       0.26664    0.24144    0.66812    1.000
    N1445    N        0.26491    0.16801    0.64031    1.000
    N1446    N        0.25494    0.23153    0.62822    1.000
    Si1447   Si       0.24505    0.13265    0.62730    1.000
    Si1448   Si       0.25801    0.17148    0.68256    1.000
    N1449    N        0.24984    0.21242    0.69660    1.000
    N1450    N        0.25946    0.06408    0.80220    1.000
    Si1451   Si       0.23988    0.09303    0.82892    1.000
    Si1452   Si       0.27259    0.02582    0.81780    1.000
    Si1453   Si       0.27034    0.06755    0.76024    1.000
    N1454    N        0.27333    0.11773    0.84480    1.000
    N1455    N        0.23487    0.00941    0.83357    1.000
    N1456    N        0.23986    0.16423    0.75751    1.000
    N1457    N        0.25666    0.18147    0.82308    1.000
    N1458    N        0.23744    0.23274    0.76857    1.000
    Si1459   Si       0.23785    0.18210    0.86176    1.000
    Si1460   Si       0.23374    0.19336    0.78764    1.000
    Si1461   Si       0.25805    0.25275    0.86488    1.000
    N1462    N        0.22666    0.22416    0.85716    1.000
    Si1463   Si       0.27188    0.14002    0.74748    1.000
    Si1464   Si       0.27050    0.26008    0.77846    1.000
    N1465    N        0.23069    0.11208    0.98808    1.000
    N1466    N        0.26369    0.10383    0.91310    1.000
    N1467    N        0.25720    0.03323    0.90001    1.000
    Si1468   Si       0.23478    0.07153    0.90346    1.000
    Si1469   Si       0.27197    0.12637    0.98722    1.000
    N1470    N        0.26627    0.16628    0.89009    1.000
    Si1471   Si       0.25116    0.14724    0.92510    1.000
    N1472    N        0.27533    0.15713    0.95817    1.000
    N1473    N        0.26318    0.25729    0.90961    1.000
    Si1474   Si       0.25009    0.27702    0.10403    1.000
    Si1475   Si       0.24582    0.29410    0.03404    1.000
    Si1476   Si       0.26122    0.34859    0.07599    1.000
    N1477    N        0.24148    0.33630    0.03881    1.000
    N1478    N        0.23506    0.37005    0.10230    1.000
    Si1479   Si       0.23516    0.36963    0.00892    1.000
    N1480    N        0.27430    0.30953    0.09161    1.000
    N1481    N        0.23151    0.27174    0.99863    1.000
    N1482    N        0.27592    0.49123    0.10520    1.000
    Si1483   Si       0.26278    0.44949    0.09687    1.000
    N1484    N        0.26894    0.47336    0.02253    1.000
    N1485    N        0.26772    0.39928    0.00975    1.000
    Si1486   Si       0.27347    0.33144    0.22879    1.000
    N1487    N        0.23984    0.31306    0.20838    1.000
    Si1488   Si       0.23365    0.32542    0.16826    1.000
    N1489    N        0.26426    0.35676    0.16085    1.000
    N1490    N        0.26951    0.37277    0.24132    1.000
    N1491    N        0.25805    0.44379    0.20256    1.000
    N1492    N        0.22468    0.49777    0.23051    1.000
    Si1493   Si       0.26402    0.47244    0.23438    1.000
    Si1494   Si       0.24544    0.39067    0.13961    1.000
    N1495    N        0.27894    0.42103    0.12925    1.000
    Si1496   Si       0.28016    0.41122    0.22355    1.000
    Si1497   Si       0.25842    0.28971    0.29277    1.000
    N1498    N        0.26613    0.30465    0.33435    1.000
    Si1499   Si       0.24151    0.32569    0.36620    1.000
    N1500    N        0.23774    0.36919    0.37088    1.000
    Si1501   Si       0.27800    0.36558    0.28409    1.000
    N1502    N        0.28245    0.31810    0.27021    1.000
    N1503    N        0.26017    0.39725    0.30713    1.000
    N1504    N        0.24086    0.45348    0.26984    1.000
    Si1505   Si       0.26385    0.47029    0.35868    1.000
    Si1506   Si       0.27292    0.43644    0.29288    1.000
    Si1507   Si       0.22623    0.39117    0.33548    1.000
    N1508    N        0.22491    0.48833    0.35471    1.000
    N1509    N        0.26188    0.36904    0.48955    1.000
    N1510    N        0.24234    0.30760    0.40607    1.000
    N1511    N        0.24532    0.43247    0.37142    1.000
    N1512    N        0.27742    0.40690    0.42874    1.000
    N1513    N        0.26113    0.43690    0.49099    1.000
    Si1514   Si       0.25204    0.40504    0.46440    1.000
    Si1515   Si       0.24282    0.40137    0.40112    1.000
    Si1516   Si       0.25933    0.32125    0.57513    1.000
    N1517    N        0.26967    0.35877    0.59699    1.000
    N1518    N        0.23351    0.29172    0.59563    1.000
    N1519    N        0.23007    0.32509    0.54269    1.000
    Si1520   Si       0.22792    0.34947    0.50730    1.000
    Si1521   Si       0.26509    0.48087    0.59528    1.000
    Si1522   Si       0.25540    0.46421    0.52211    1.000
    N1523    N        0.23074    0.46089    0.60471    1.000
    N1524    N        0.27892    0.45872    0.55883    1.000
    N1525    N        0.23576    0.34478    0.65620    1.000
    N1526    N        0.23932    0.33072    0.72071    1.000
    N1527    N        0.24592    0.27933    0.66768    1.000
    Si1528   Si       0.25831    0.31856    0.68156    1.000
    Si1529   Si       0.25018    0.37649    0.63243    1.000
    Si1530   Si       0.22664    0.26577    0.62934    1.000
    Si1531   Si       0.24912    0.44728    0.71728    1.000
    N1532    N        0.25631    0.45613    0.67523    1.000
    Si1533   Si       0.22551    0.44742    0.64732    1.000
    N1534    N        0.27864    0.41283    0.72590    1.000
    N1535    N        0.26551    0.47930    0.74132    1.000
    N1536    N        0.25773    0.36622    0.78241    1.000
    N1537    N        0.24122    0.29878    0.77774    1.000
    Si1538   Si       0.26325    0.33080    0.75935    1.000
    N1539    N        0.26771    0.26907    0.82397    1.000
    Si1540   Si       0.23091    0.29490    0.82345    1.000
    N1541    N        0.22996    0.29168    0.86784    1.000
    Si1542   Si       0.25832    0.47348    0.78488    1.000
    N1543    N        0.26246    0.43165    0.79490    1.000
    Si1544   Si       0.24850    0.41573    0.83138    1.000
    N1545    N        0.27884    0.38764    0.85060    1.000
    Si1546   Si       0.27946    0.40084    0.76939    1.000
    N1547    N        0.24630    0.43929    0.86888    1.000
    Si1548   Si       0.24302    0.35370    0.93042    1.000
    N1549    N        0.26645    0.31860    0.92533    1.000
    Si1550   Si       0.23488    0.29243    0.91132    1.000
    N1551    N        0.22433    0.35719    0.96945    1.000
    Si1552   Si       0.25875    0.44071    0.99480    1.000
    Si1553   Si       0.27319    0.41107    0.88746    1.000
    N1554    N        0.26489    0.38852    0.92345    1.000
    Si1555   Si       0.25000    0.61469    0.01125    1.000
    Si1556   Si       0.26109    0.53183    0.10355    1.000
    Si1557   Si       0.27503    0.60180    0.09940    1.000
    N1558    N        0.23487    0.52414    0.06499    1.000
    N1559    N        0.23283    0.60809    0.08621    1.000
    Si1560   Si       0.24944    0.51183    0.02706    1.000
    N1561    N        0.28097    0.54203    0.01297    1.000
    Si1562   Si       0.22181    0.71411    0.09027    1.000
    N1563    N        0.26646    0.70620    0.09577    1.000
    N1564    N        0.26889    0.73920    0.03611    1.000
    N1565    N        0.23467    0.65712    0.01389    1.000
    N1566    N        0.23211    0.55053    0.19131    1.000
    N1567    N        0.26192    0.59719    0.14356    1.000
    Si1568   Si       0.26927    0.56349    0.17156    1.000
    Si1569   Si       0.22348    0.54040    0.23211    1.000
    Si1570   Si       0.27164    0.63003    0.17053    1.000
    N1571    N        0.28577    0.53320    0.14889    1.000
    N1572    N        0.24895    0.63439    0.20512    1.000
    Si1573   Si       0.28095    0.72165    0.22027    1.000
    Si1574   Si       0.22484    0.69025    0.16309    1.000
    N1575    N        0.25724    0.66421    0.14734    1.000
    N1576    N        0.25107    0.71442    0.18846    1.000
    Si1577   Si       0.24420    0.56817    0.29553    1.000
    N1578    N        0.25732    0.55279    0.25760    1.000
    N1579    N        0.27315    0.58013    0.32612    1.000
    Si1580   Si       0.25553    0.58053    0.36635    1.000
    Si1581   Si       0.26010    0.74129    0.29346    1.000
    Si1582   Si       0.23161    0.64179    0.29542    1.000
    N1583    N        0.27538    0.71225    0.26061    1.000
    N1584    N        0.27559    0.64413    0.30274    1.000
    Si1585   Si       0.27844    0.70960    0.36723    1.000
    N1586    N        0.28418    0.70799    0.32477    1.000
    N1587    N        0.24798    0.62091    0.37885    1.000
    N1588    N        0.25748    0.51989    0.44168    1.000
    Si1589   Si       0.24871    0.52927    0.48289    1.000
    Si1590   Si       0.23249    0.60257    0.48454    1.000
    N1591    N        0.26348    0.57146    0.48512    1.000
    N1592    N        0.22516    0.60930    0.44004    1.000
    Si1593   Si       0.25938    0.62846    0.42014    1.000
    N1594    N        0.21967    0.55977    0.37786    1.000
    Si1595   Si       0.23959    0.67810    0.47884    1.000
    N1596    N        0.26736    0.75177    0.37511    1.000
    N1597    N        0.26049    0.67251    0.43857    1.000
    N1598    N        0.25293    0.63943    0.49536    1.000
    N1599    N        0.24548    0.68696    0.37863    1.000
    N1600    N        0.25936    0.52238    0.58429    1.000
    N1601    N        0.23854    0.59344    0.61593    1.000
    Si1602   Si       0.23013    0.55374    0.59421    1.000
    N1603    N        0.27835    0.63103    0.55725    1.000
    N1604    N        0.26517    0.50836    0.51503    1.000
    N1605    N        0.28136    0.64899    0.62017    1.000
    Si1606   Si       0.25583    0.65756    0.58379    1.000
    Si1607   Si       0.25662    0.73028    0.60859    1.000
    N1608    N        0.26472    0.69834    0.57690    1.000
    N1609    N        0.23576    0.70300    0.51561    1.000
    Si1610   Si       0.27203    0.71055    0.53709    1.000
    N1611    N        0.26018    0.61347    0.72993    1.000
    N1612    N        0.25293    0.54505    0.72667    1.000
    Si1613   Si       0.25511    0.58178    0.70311    1.000
    Si1614   Si       0.27565    0.60401    0.63153    1.000
    N1615    N        0.28143    0.60020    0.67217    1.000
    Si1616   Si       0.26159    0.66816    0.65228    1.000
    N1617    N        0.25187    0.71042    0.64651    1.000
    Si1618   Si       0.24423    0.72534    0.68556    1.000
    N1619    N        0.28327    0.73152    0.70638    1.000
    N1620    N        0.22355    0.64847    0.65839    1.000
    N1621    N        0.27298    0.55919    0.80429    1.000
    Si1622   Si       0.23346    0.57426    0.80968    1.000
    N1623    N        0.22897    0.61173    0.79070    1.000
    N1624    N        0.23062    0.58277    0.85133    1.000
    Si1625   Si       0.26029    0.61265    0.86660    1.000
    Si1626   Si       0.26398    0.62859    0.76944    1.000
    N1627    N        0.25969    0.67171    0.76708    1.000
    N1628    N        0.25164    0.65328    0.85771    1.000
    Si1629   Si       0.23465    0.73884    0.79927    1.000
    N1630    N        0.27632    0.74027    0.78847    1.000
    Si1631   Si       0.24471    0.74276    0.86593    1.000
    N1632    N        0.23168    0.71543    0.83492    1.000
    N1633    N        0.26440    0.62335    0.97110    1.000
    N1634    N        0.24391    0.55901    0.95620    1.000
    Si1635   Si       0.23739    0.59902    0.94014    1.000
    Si1636   Si       0.24947    0.52376    0.92924    1.000
    N1637    N        0.26633    0.61107    0.90939    1.000
    N1638    N        0.26156    0.53792    0.89097    1.000
    N1639    N        0.27822    0.71999    0.87981    1.000
    N1640    N        0.27390    0.70230    0.97736    1.000
    Si1641   Si       0.25276    0.66576    0.97462    1.000
    Si1642   Si       0.25846    0.73917    0.99381    1.000
    Si1643   Si       0.24287    0.84652    0.09859    1.000
    N1644    N        0.24851    0.80162    0.02807    1.000
    Si1645   Si       0.24989    0.77110    0.05934    1.000
    N1646    N        0.27970    0.78176    0.08667    1.000
    Si1647   Si       0.28229    0.80504    0.00264    1.000
    N1648    N        0.23259    0.88628    0.08797    1.000
    N1649    N        0.25844    0.97765    0.10325    1.000
    Si1650   Si       0.24170    0.89913    0.04743    1.000
    N1651    N        0.23594    0.94213    0.05207    1.000
    Si1652   Si       0.27567    0.94587    0.07308    1.000
    N1653    N        0.27076    0.97997    0.00106    1.000
    Si1654   Si       0.26135    0.79733    0.24055    1.000
    Si1655   Si       0.25349    0.81468    0.16742    1.000
    N1656    N        0.24165    0.77538    0.15361    1.000
    N1657    N        0.23361    0.81177    0.20702    1.000
    N1658    N        0.23527    0.83996    0.13858    1.000
    N1659    N        0.27602    0.76534    0.21252    1.000
    Si1660   Si       0.23550    0.75634    0.19121    1.000
    N1661    N        0.22696    0.98211    0.20761    1.000
    Si1662   Si       0.25987    0.95322    0.20781    1.000
    N1663    N        0.22889    0.91375    0.14917    1.000
    Si1664   Si       0.27273    0.92188    0.14724    1.000
    N1665    N        0.23904    0.91589    0.21553    1.000
    N1666    N        0.28102    0.95564    0.17133    1.000
    N1667    N        0.23681    0.77521    0.26668    1.000
    N1668    N        0.23358    0.83855    0.35567    1.000
    N1669    N        0.24551    0.85654    0.25416    1.000
    Si1670   Si       0.27917    0.84369    0.35142    1.000
    Si1671   Si       0.28375    0.85589    0.27334    1.000
    Si1672   Si       0.23018    0.88252    0.36000    1.000
    N1673    N        0.27494    0.88702    0.35932    1.000
    N1674    N        0.25101    0.91995    0.28403    1.000
    N1675    N        0.25228    0.94559    0.35033    1.000
    Si1676   Si       0.23070    0.89780    0.25320    1.000
    Si1677   Si       0.23815    0.81243    0.45933    1.000
    N1678    N        0.25294    0.79937    0.42166    1.000
    Si1679   Si       0.23572    0.76815    0.39776    1.000
    N1680    N        0.23222    0.85611    0.46134    1.000
    N1681    N        0.26168    0.80432    0.49444    1.000
    N1682    N        0.26809    0.93404    0.42291    1.000
    N1683    N        0.25236    0.98683    0.46020    1.000
    N1684    N        0.25044    0.91910    0.48886    1.000
    N1685    N        0.26320    0.99990    0.39846    1.000
    Si1686   Si       0.23750    0.94201    0.45345    1.000
    Si1687   Si       0.25082    0.95801    0.39077    1.000
    N1688    N        0.26407    0.80862    0.56389    1.000
    Si1689   Si       0.25261    0.78109    0.53005    1.000
    N1690    N        0.23404    0.86065    0.60533    1.000
    Si1691   Si       0.23051    0.83576    0.56871    1.000
    N1692    N        0.22476    0.86216    0.53466    1.000
    N1693    N        0.22896    0.76447    0.61032    1.000
    Si1694   Si       0.24823    0.87430    0.49693    1.000
    N1695    N        0.25815    0.00579    0.58780    1.000
    N1696    N        0.24435    0.93509    0.60281    1.000
    Si1697   Si       0.25097    0.93528    0.52963    1.000
    N1698    N        0.27153    0.97578    0.52796    1.000
    Si1699   Si       0.24107    0.97595    0.61469    1.000
    Si1700   Si       0.24739    0.00025    0.50163    1.000
    Si1701   Si       0.22398    0.90107    0.61837    1.000
    N1702    N        0.26735    0.80877    0.63834    1.000
    N1703    N        0.26817    0.84397    0.68876    1.000
    Si1704   Si       0.24280    0.84810    0.64760    1.000
    Si1705   Si       0.25425    0.83342    0.72879    1.000
    N1706    N        0.27236    0.79549    0.73721    1.000
    Si1707   Si       0.23037    0.78576    0.64710    1.000
    N1708    N        0.26182    0.97500    0.65277    1.000
    Si1709   Si       0.27673    0.93231    0.72025    1.000
    Si1710   Si       0.24998    0.99773    0.69083    1.000
    N1711    N        0.24036    0.89316    0.65907    1.000
    N1712    N        0.23334    0.92544    0.72055    1.000
    N1713    N        0.24803    0.84128    0.81238    1.000
    N1714    N        0.25918    0.78186    0.85525    1.000
    N1715    N        0.27234    0.86478    0.75637    1.000
    Si1716   Si       0.23357    0.86451    0.77907    1.000
    Si1717   Si       0.23179    0.80694    0.83381    1.000
    N1718    N        0.25547    0.94376    0.82201    1.000
    Si1719   Si       0.23885    0.93190    0.85943    1.000
    N1720    N        0.23890    0.88948    0.87040    1.000
    Si1721   Si       0.22366    0.97183    0.81640    1.000
    N1722    N        0.28031    0.84170    0.97892    1.000
    N1723    N        0.24972    0.80780    0.91481    1.000
    Si1724   Si       0.25206    0.83751    0.94606    1.000
    N1725    N        0.27067    0.87221    0.92807    1.000
    Si1726   Si       0.27766    0.87839    0.88620    1.000
    Si1727   Si       0.28223    0.80385    0.88666    1.000
    N1728    N        0.28216    0.77036    0.97520    1.000
    N1729    N        0.24949    0.90691    0.98511    1.000
    Si1730   Si       0.23634    0.99613    0.91032    1.000
    N1731    N        0.24887    0.95752    0.89111    1.000
    N1732    N        0.23554    0.98122    0.95147    1.000
    Si1733   Si       0.25699    0.94935    0.97503    1.000
    Si1734   Si       0.23886    0.00775    0.98865    1.000
    Si1735   Si       0.31785    0.06440    0.07952    1.000
    N1736    N        0.32326    0.10088    0.10336    1.000
    N1737    N        0.29851    0.07738    0.04369    1.000
    N1738    N        0.32308    0.02774    0.00851    1.000
    Si1739   Si       0.29401    0.06017    0.00402    1.000
    N1740    N        0.28747    0.04040    0.09811    1.000
    N1741    N        0.29347    0.24677    0.08734    1.000
    Si1742   Si       0.32326    0.16025    0.02692    1.000
    N1743    N        0.32620    0.20123    0.04522    1.000
    Si1744   Si       0.28897    0.21252    0.06285    1.000
    N1745    N        0.28285    0.14218    0.02663    1.000
    Si1746   Si       0.32721    0.23838    0.11758    1.000
    N1747    N        0.32949    0.06504    0.20474    1.000
    Si1748   Si       0.29138    0.11489    0.12918    1.000
    Si1749   Si       0.28844    0.12894    0.19736    1.000
    Si1750   Si       0.28548    0.05860    0.19723    1.000
    Si1751   Si       0.34286    0.09736    0.23258    1.000
    N1752    N        0.32283    0.13531    0.22249    1.000
    N1753    N        0.30780    0.21229    0.14297    1.000
    Si1754   Si       0.33051    0.17770    0.22993    1.000
    N1755    N        0.29898    0.20616    0.24065    1.000
    N1756    N        0.30277    0.14401    0.15839    1.000
    Si1757   Si       0.33111    0.17678    0.15347    1.000
    N1758    N        0.32344    0.08873    0.26999    1.000
    N1759    N        0.33043    0.09242    0.34809    1.000
    Si1760   Si       0.29230    0.10140    0.36531    1.000
    Si1761   Si       0.33682    0.10718    0.30700    1.000
    N1762    N        0.33183    0.21770    0.31555    1.000
    N1763    N        0.32018    0.14858    0.30849    1.000
    Si1764   Si       0.29028    0.22556    0.32387    1.000
    N1765    N        0.29186    0.24501    0.36408    1.000
    N1766    N        0.29714    0.04222    0.44278    1.000
    Si1767   Si       0.29680    0.06169    0.48076    1.000
    N1768    N        0.29938    0.10546    0.47679    1.000
    Si1769   Si       0.33544    0.12614    0.46842    1.000
    N1770    N        0.28843    0.11634    0.40683    1.000
    Si1771   Si       0.27704    0.07594    0.41924    1.000
    N1772    N        0.32656    0.16058    0.44242    1.000
    Si1773   Si       0.29829    0.22777    0.40273    1.000
    N1774    N        0.33220    0.22551    0.47916    1.000
    Si1775   Si       0.28564    0.15479    0.42931    1.000
    Si1776   Si       0.29345    0.24685    0.47661    1.000
    Si1777   Si       0.30379    0.10014    0.59542    1.000
    N1778    N        0.32282    0.09920    0.55473    1.000
    N1779    N        0.32096    0.02498    0.55515    1.000
    N1780    N        0.28741    0.06299    0.61143    1.000
    Si1781   Si       0.34015    0.06136    0.53924    1.000
    N1782    N        0.33887    0.05737    0.49698    1.000
    Si1783   Si       0.33001    0.13921    0.53906    1.000
    N1784    N        0.29273    0.15542    0.52202    1.000
    N1785    N        0.32141    0.21637    0.54805    1.000
    N1786    N        0.32102    0.20273    0.61696    1.000
    Si1787   Si       0.28417    0.19857    0.53354    1.000
    N1788    N        0.33670    0.11129    0.62262    1.000
    N1789    N        0.31980    0.01534    0.65803    1.000
    N1790    N        0.31073    0.08210    0.67729    1.000
    Si1791   Si       0.29271    0.04876    0.65285    1.000
    N1792    N        0.30901    0.23718    0.67560    1.000
    Si1793   Si       0.31730    0.23764    0.71897    1.000
    N1794    N        0.32515    0.19943    0.73710    1.000
    Si1795   Si       0.32815    0.16134    0.71561    1.000
    Si1796   Si       0.33911    0.20950    0.65513    1.000
    N1797    N        0.28778    0.14850    0.70636    1.000
    N1798    N        0.31483    0.07008    0.76674    1.000
    Si1799   Si       0.33218    0.11100    0.77266    1.000
    N1800    N        0.30415    0.02188    0.84839    1.000
    N1801    N        0.29907    0.13905    0.78097    1.000
    N1802    N        0.31796    0.16113    0.85032    1.000
    N1803    N        0.30687    0.23586    0.79155    1.000
    Si1804   Si       0.28664    0.15203    0.81991    1.000
    N1805    N        0.29552    0.22773    0.86216    1.000
    Si1806   Si       0.30899    0.25191    0.83021    1.000
    Si1807   Si       0.30160    0.09281    0.93268    1.000
    N1808    N        0.31780    0.05604    0.91663    1.000
    N1809    N        0.29553    0.09214    0.97426    1.000
    Si1810   Si       0.29768    0.02735    0.89076    1.000
    N1811    N        0.32486    0.12433    0.91080    1.000
    Si1812   Si       0.29381    0.13223    0.87992    1.000
    N1813    N        0.29016    0.23022    0.96996    1.000
    N1814    N        0.32063    0.20360    0.92155    1.000
    Si1815   Si       0.29713    0.24085    0.92799    1.000
    N1816    N        0.33499    0.17074    0.98687    1.000
    Si1817   Si       0.31989    0.19669    0.87665    1.000
    Si1818   Si       0.30514    0.18921    0.96081    1.000
    Si1819   Si       0.32144    0.30226    0.01629    1.000
    Si1820   Si       0.31121    0.28776    0.08487    1.000
    N1821    N        0.31352    0.34422    0.00834    1.000
    N1822    N        0.29656    0.37365    0.07326    1.000
    N1823    N        0.28616    0.28067    0.02406    1.000
    Si1824   Si       0.30362    0.38042    0.03010    1.000
    Si1825   Si       0.30785    0.46745    0.03899    1.000
    Si1826   Si       0.30798    0.40881    0.09815    1.000
    N1827    N        0.29558    0.43975    0.07086    1.000
    N1828    N        0.33199    0.50043    0.05604    1.000
    N1829    N        0.33413    0.46333    0.00712    1.000
    N1830    N        0.34266    0.40035    0.03381    1.000
    N1831    N        0.32948    0.28127    0.12551    1.000
    N1832    N        0.30976    0.32901    0.20463    1.000
    Si1833   Si       0.30571    0.35892    0.17421    1.000
    N1834    N        0.33712    0.34381    0.14665    1.000
    N1835    N        0.30518    0.40075    0.18926    1.000
    N1836    N        0.29719    0.50001    0.22802    1.000
    Si1837   Si       0.33143    0.49058    0.20129    1.000
    Si1838   Si       0.29089    0.43490    0.16804    1.000
    N1839    N        0.31251    0.47109    0.16792    1.000
    Si1840   Si       0.30662    0.49930    0.13580    1.000
    Si1841   Si       0.29857    0.28655    0.35333    1.000
    Si1842   Si       0.32316    0.31714    0.28977    1.000
    N1843    N        0.32905    0.28619    0.32057    1.000
    N1844    N        0.31711    0.35833    0.30112    1.000
    Si1845   Si       0.33300    0.45768    0.33045    1.000
    N1846    N        0.29879    0.43554    0.25559    1.000
    N1847    N        0.29021    0.46254    0.32417    1.000
    Si1848   Si       0.33989    0.44613    0.26009    1.000
    N1849    N        0.30203    0.33459    0.44299    1.000
    Si1850   Si       0.30462    0.35950    0.47962    1.000
    N1851    N        0.30732    0.31112    0.38672    1.000
    Si1852   Si       0.33451    0.33688    0.40960    1.000
    N1853    N        0.33967    0.37788    0.40085    1.000
    Si1854   Si       0.28315    0.30121    0.42301    1.000
    N1855    N        0.28808    0.25805    0.43507    1.000
    N1856    N        0.28948    0.28208    0.49972    1.000
    N1857    N        0.34084    0.44355    0.42096    1.000
    N1858    N        0.28943    0.48741    0.38879    1.000
    N1859    N        0.32891    0.39393    0.46983    1.000
    Si1860   Si       0.32102    0.40706    0.42801    1.000
    Si1861   Si       0.33095    0.47879    0.39931    1.000
    Si1862   Si       0.31885    0.30190    0.52533    1.000
    N1863    N        0.29823    0.30899    0.56052    1.000
    N1864    N        0.33264    0.33840    0.50730    1.000
    Si1865   Si       0.30820    0.37680    0.61024    1.000
    Si1866   Si       0.33076    0.49566    0.60100    1.000
    Si1867   Si       0.31843    0.44106    0.55996    1.000
    N1868    N        0.32335    0.40950    0.58869    1.000
    N1869    N        0.33361    0.44420    0.51989    1.000
    N1870    N        0.28720    0.26567    0.73665    1.000
    N1871    N        0.30039    0.31537    0.68509    1.000
    Si1872   Si       0.31164    0.29920    0.72505    1.000
    N1873    N        0.33345    0.37788    0.69507    1.000
    Si1874   Si       0.33481    0.33826    0.67124    1.000
    N1875    N        0.33553    0.34878    0.62715    1.000
    Si1876   Si       0.29438    0.47327    0.66509    1.000
    N1877    N        0.29824    0.47698    0.62086    1.000
    Si1878   Si       0.30095    0.40791    0.68822    1.000
    N1879    N        0.32370    0.44339    0.68006    1.000
    N1880    N        0.28777    0.39476    0.64672    1.000
    Si1881   Si       0.31265    0.36166    0.85004    1.000
    N1882    N        0.30622    0.33010    0.75539    1.000
    Si1883   Si       0.33690    0.35594    0.77479    1.000
    N1884    N        0.33568    0.34117    0.81700    1.000
    N1885    N        0.32094    0.39820    0.77858    1.000
    Si1886   Si       0.31887    0.47984    0.84168    1.000
    N1887    N        0.33282    0.44118    0.83607    1.000
    N1888    N        0.28827    0.49209    0.81196    1.000
    N1889    N        0.31152    0.32083    0.87181    1.000
    Si1890   Si       0.30707    0.31142    0.91347    1.000
    N1891    N        0.32977    0.33680    0.93970    1.000
    N1892    N        0.32720    0.27329    0.92244    1.000
    N1893    N        0.28458    0.44867    0.95801    1.000
    Si1894   Si       0.29664    0.41003    0.94316    1.000
    Si1895   Si       0.30561    0.47168    0.92722    1.000
    N1896    N        0.31000    0.42744    0.90358    1.000
    N1897    N        0.32915    0.39835    0.96784    1.000
    N1898    N        0.30747    0.48753    0.88353    1.000
    Si1899   Si       0.29808    0.56943    0.04235    1.000
    N1900    N        0.28372    0.60939    0.03724    1.000
    N1901    N        0.28728    0.56425    0.08332    1.000
    N1902    N        0.29894    0.63883    0.09859    1.000
    Si1903   Si       0.30913    0.64020    0.05574    1.000
    N1904    N        0.30820    0.68284    0.04555    1.000
    Si1905   Si       0.29324    0.71825    0.06509    1.000
    N1906    N        0.32882    0.73337    0.08602    1.000
    Si1907   Si       0.28712    0.67481    0.11955    1.000
    Si1908   Si       0.29386    0.54219    0.23768    1.000
    N1909    N        0.31496    0.62661    0.17642    1.000
    Si1910   Si       0.33252    0.58996    0.18935    1.000
    N1911    N        0.29872    0.56684    0.20253    1.000
    Si1912   Si       0.33281    0.71839    0.16704    1.000
    N1913    N        0.32002    0.71280    0.21004    1.000
    N1914    N        0.31262    0.75342    0.15104    1.000
    N1915    N        0.32586    0.68301    0.14256    1.000
    Si1916   Si       0.30054    0.61282    0.32121    1.000
    N1917    N        0.32699    0.54554    0.26470    1.000
    N1918    N        0.32185    0.61528    0.35917    1.000
    N1919    N        0.33548    0.61019    0.29333    1.000
    Si1920   Si       0.29069    0.68447    0.28992    1.000
    N1921    N        0.33009    0.67854    0.27090    1.000
    N1922    N        0.33131    0.74999    0.35671    1.000
    Si1923   Si       0.31484    0.59344    0.39602    1.000
    N1924    N        0.33087    0.51598    0.42124    1.000
    N1925    N        0.33322    0.55747    0.47487    1.000
    Si1926   Si       0.28804    0.52407    0.41164    1.000
    N1927    N        0.28550    0.56290    0.39308    1.000
    N1928    N        0.30330    0.62688    0.42478    1.000
    Si1929   Si       0.33820    0.69483    0.49484    1.000
    Si1930   Si       0.30258    0.67372    0.42809    1.000
    Si1931   Si       0.32893    0.73678    0.39716    1.000
    N1932    N        0.33734    0.67845    0.45461    1.000
    N1933    N        0.30918    0.69925    0.39550    1.000
    Si1934   Si       0.30694    0.60082    0.57038    1.000
    N1935    N        0.30754    0.58277    0.61061    1.000
    N1936    N        0.29931    0.57121    0.54136    1.000
    N1937    N        0.32469    0.61821    0.50532    1.000
    Si1938   Si       0.30533    0.57915    0.49837    1.000
    N1939    N        0.32393    0.51241    0.56038    1.000
    Si1940   Si       0.28455    0.52881    0.54812    1.000
    N1941    N        0.34067    0.63196    0.57514    1.000
    N1942    N        0.29221    0.75399    0.60309    1.000
    N1943    N        0.30179    0.68553    0.51688    1.000
    Si1944   Si       0.32605    0.65395    0.61022    1.000
    Si1945   Si       0.29025    0.64182    0.51814    1.000
    Si1946   Si       0.33133    0.73508    0.59773    1.000
    N1947    N        0.28451    0.75020    0.52896    1.000
    N1948    N        0.34259    0.69440    0.60709    1.000
    N1949    N        0.30352    0.51097    0.68500    1.000
    N1950    N        0.32907    0.63055    0.71505    1.000
    Si1951   Si       0.28513    0.51400    0.72366    1.000
    Si1952   Si       0.28829    0.63099    0.70230    1.000
    Si1953   Si       0.31130    0.69736    0.70930    1.000
    N1954    N        0.28563    0.66978    0.68705    1.000
    Si1955   Si       0.30461    0.59066    0.81162    1.000
    N1956    N        0.30048    0.60558    0.85204    1.000
    N1957    N        0.30672    0.61650    0.77702    1.000
    Si1958   Si       0.30643    0.52882    0.79940    1.000
    N1959    N        0.31417    0.52651    0.75558    1.000
    N1960    N        0.33891    0.56300    0.80588    1.000
    Si1961   Si       0.33948    0.59603    0.87079    1.000
    N1962    N        0.30357    0.68034    0.81805    1.000
    N1963    N        0.32115    0.69223    0.75267    1.000
    Si1964   Si       0.29055    0.69904    0.78074    1.000
    Si1965   Si       0.34044    0.66655    0.83639    1.000
    Si1966   Si       0.28444    0.68293    0.85687    1.000
    N1967    N        0.33024    0.55157    0.87180    1.000
    N1968    N        0.31359    0.58020    0.96070    1.000
    Si1969   Si       0.29698    0.61625    0.93999    1.000
    Si1970   Si       0.30395    0.52879    0.89574    1.000
    N1971    N        0.29231    0.51720    0.94014    1.000
    Si1972   Si       0.28562    0.54917    0.97141    1.000
    N1973    N        0.32615    0.67863    0.87687    1.000
    Si1974   Si       0.33853    0.65371    0.91148    1.000
    N1975    N        0.32610    0.72594    0.93271    1.000
    Si1976   Si       0.31292    0.69691    0.96129    1.000
    N1977    N        0.30852    0.65738    0.94316    1.000
    Si1978   Si       0.32069    0.72198    0.88843    1.000
    N1979    N        0.31698    0.80770    0.02819    1.000
    Si1980   Si       0.30950    0.81355    0.07078    1.000
    Si1981   Si       0.31240    0.76722    0.11088    1.000
    N1982    N        0.28458    0.84835    0.08456    1.000
    N1983    N        0.33985    0.80083    0.09941    1.000
    Si1984   Si       0.30243    0.88741    0.08145    1.000
    Si1985   Si       0.29642    0.99746    0.09604    1.000
    Si1986   Si       0.31212    0.98521    0.01805    1.000
    N1987    N        0.30637    0.97546    0.05944    1.000
    N1988    N        0.28786    0.92002    0.10693    1.000
    N1989    N        0.28748    0.90740    0.04503    1.000
    N1990    N        0.34240    0.96136    0.99685    1.000
    Si1991   Si       0.30508    0.77947    0.18506    1.000
    N1992    N        0.29725    0.81933    0.16886    1.000
    Si1993   Si       0.33405    0.82182    0.23042    1.000
    Si1994   Si       0.32068    0.85639    0.16882    1.000
    N1995    N        0.33717    0.86008    0.21099    1.000
    N1996    N        0.34135    0.78536    0.20968    1.000
    N1997    N        0.29505    0.88957    0.16502    1.000
    N1998    N        0.32905    0.99649    0.19932    1.000
    N1999    N        0.28787    0.95565    0.24105    1.000
    Si2000   Si       0.30789    0.99518    0.23705    1.000
    N2001    N        0.32378    0.99064    0.12745    1.000
    Si2002   Si       0.30187    0.99134    0.16404    1.000
    Si2003   Si       0.31254    0.80461    0.29536    1.000
    Si2004   Si       0.29544    0.77471    0.35209    1.000
    N2005    N        0.29928    0.81653    0.25385    1.000
    N2006    N        0.29160    0.83911    0.31131    1.000
    N2007    N        0.28485    0.77352    0.31010    1.000
    N2008    N        0.31101    0.88923    0.26787    1.000
    N2009    N        0.30953    0.94462    0.31109    1.000
    Si2010   Si       0.31568    0.98841    0.31129    1.000
    Si2011   Si       0.29240    0.92896    0.27419    1.000
    Si2012   Si       0.29109    0.92617    0.34666    1.000
    N2013    N        0.33340    0.99600    0.27109    1.000
    N2014    N        0.29892    0.81198    0.37303    1.000
    N2015    N        0.30929    0.82948    0.44817    1.000
    Si2016   Si       0.29705    0.80435    0.41576    1.000
    N2017    N        0.31886    0.76807    0.42616    1.000
    Si2018   Si       0.30046    0.82350    0.49153    1.000
    Si2019   Si       0.31140    0.93422    0.42063    1.000
    N2020    N        0.32209    0.97335    0.43461    1.000
    N2021    N        0.31999    0.93759    0.37793    1.000
    N2022    N        0.33021    0.89791    0.43604    1.000
    Si2023   Si       0.28812    0.99926    0.43484    1.000
    N2024    N        0.32059    0.81801    0.60109    1.000
    N2025    N        0.32662    0.80563    0.52054    1.000
    Si2026   Si       0.32522    0.86221    0.60999    1.000
    N2027    N        0.32817    0.86383    0.56400    1.000
    N2028    N        0.29076    0.86576    0.50325    1.000
    Si2029   Si       0.32736    0.76175    0.52520    1.000
    Si2030   Si       0.33982    0.82086    0.56002    1.000
    Si2031   Si       0.28357    0.79641    0.60027    1.000
    Si2032   Si       0.31110    0.88975    0.53168    1.000
    N2033    N        0.30819    0.96380    0.58832    1.000
    Si2034   Si       0.29058    0.99504    0.56223    1.000
    Si2035   Si       0.28529    0.92728    0.59098    1.000
    N2036    N        0.29522    0.89230    0.61870    1.000
    N2037    N        0.27992    0.91181    0.55060    1.000
    Si2038   Si       0.30021    0.76968    0.71447    1.000
    N2039    N        0.32138    0.85380    0.65882    1.000
    Si2040   Si       0.29681    0.82059    0.66788    1.000
    N2041    N        0.31935    0.78532    0.67834    1.000
    Si2042   Si       0.30390    0.97543    0.66786    1.000
    N2043    N        0.30418    0.91065    0.69521    1.000
    N2044    N        0.33653    0.00386    0.74446    1.000
    N2045    N        0.34175    0.95699    0.65062    1.000
    Si2046   Si       0.28860    0.88502    0.66599    1.000
    N2047    N        0.28310    0.97495    0.71010    1.000
    N2048    N        0.30785    0.80747    0.80316    1.000
    Si2049   Si       0.29375    0.77826    0.77570    1.000
    Si2050   Si       0.28999    0.84185    0.82330    1.000
    N2051    N        0.29738    0.84188    0.86641    1.000
    N2052    N        0.32896    0.76875    0.74803    1.000
    N2053    N        0.30569    0.88151    0.81262    1.000
    N2054    N        0.29038    0.93045    0.76143    1.000
    Si2055   Si       0.30553    0.89018    0.76991    1.000
    N2056    N        0.32512    0.95076    0.82499    1.000
    Si2057   Si       0.32285    0.91029    0.84272    1.000
    Si2058   Si       0.29045    0.95374    0.79817    1.000
    Si2059   Si       0.33466    0.99440    0.83211    1.000
    N2060    N        0.28802    0.99547    0.78872    1.000
    Si2061   Si       0.29436    0.99906    0.74533    1.000
    Si2062   Si       0.31554    0.76525    0.94774    1.000
    N2063    N        0.31639    0.78431    0.90755    1.000
    Si2064   Si       0.34228    0.84854    0.87591    1.000
    Si2065   Si       0.28888    0.94850    0.90445    1.000
    N2066    N        0.32785    0.89310    0.97096    1.000
    Si2067   Si       0.28486    0.88496    0.96771    1.000
    N2068    N        0.30927    0.98657    0.90385    1.000
    N2069    N        0.29018    0.93924    0.94716    1.000
    N2070    N        0.29962    0.91398    0.87957    1.000
    Si2071   Si       0.33019    0.93549    0.96467    1.000
    N2072    N        0.37580    0.07385    0.03554    1.000
    Si2073   Si       0.38580    0.11531    0.02775    1.000
    Si2074   Si       0.38771    0.06326    0.07560    1.000
    Si2075   Si       0.36573    0.03859    0.01141    1.000
    N2076    N        0.39101    0.10112    0.09439    1.000
    N2077    N        0.35281    0.03911    0.08740    1.000
    Si2078   Si       0.35508    0.12793    0.09257    1.000
    N2079    N        0.35368    0.13710    0.05004    1.000
    Si2080   Si       0.36944    0.21396    0.05532    1.000
    N2081    N        0.36259    0.22353    0.09619    1.000
    N2082    N        0.38474    0.24055    0.02467    1.000
    Si2083   Si       0.38538    0.19040    0.11238    1.000
    N2084    N        0.35388    0.16086    0.11990    1.000
    N2085    N        0.40417    0.18728    0.99380    1.000
    N2086    N        0.40224    0.18312    0.07164    1.000
    Si2087   Si       0.36265    0.00922    0.11987    1.000
    N2088    N        0.37156    0.03012    0.15553    1.000
    N2089    N        0.38417    0.02178    0.22374    1.000
    Si2090   Si       0.35563    0.03169    0.19354    1.000
    N2091    N        0.39910    0.23668    0.21435    1.000
    N2092    N        0.34912    0.18869    0.19069    1.000
    Si2093   Si       0.38982    0.20106    0.19034    1.000
    N2094    N        0.37886    0.09643    0.30822    1.000
    Si2095   Si       0.37433    0.08692    0.35182    1.000
    N2096    N        0.38998    0.03236    0.29374    1.000
    Si2097   Si       0.38709    0.01512    0.33401    1.000
    N2098    N        0.38652    0.04695    0.36540    1.000
    Si2099   Si       0.39786    0.07251    0.27695    1.000
    N2100    N        0.38598    0.09958    0.24171    1.000
    N2101    N        0.38529    0.16988    0.32419    1.000
    N2102    N        0.36163    0.18966    0.26025    1.000
    Si2103   Si       0.35006    0.18229    0.30294    1.000
    Si2104   Si       0.39346    0.21932    0.25569    1.000
    N2105    N        0.37958    0.25279    0.28017    1.000
    Si2106   Si       0.35681    0.25360    0.31761    1.000
    N2107    N        0.38616    0.24988    0.34964    1.000
    Si2108   Si       0.39618    0.11228    0.42063    1.000
    N2109    N        0.37413    0.03092    0.43538    1.000
    Si2110   Si       0.36986    0.06054    0.46529    1.000
    N2111    N        0.36126    0.09851    0.44281    1.000
    N2112    N        0.39325    0.11701    0.37507    1.000
    N2113    N        0.40127    0.18952    0.39183    1.000
    N2114    N        0.38761    0.18529    0.46166    1.000
    Si2115   Si       0.34766    0.19961    0.44932    1.000
    Si2116   Si       0.38299    0.22977    0.39007    1.000
    N2117    N        0.34356    0.22079    0.41039    1.000
    N2118    N        0.37795    0.05244    0.55745    1.000
    Si2119   Si       0.36314    0.01141    0.56643    1.000
    Si2120   Si       0.36626    0.13245    0.60205    1.000
    Si2121   Si       0.34819    0.23207    0.51798    1.000
    N2122    N        0.38360    0.22409    0.58404    1.000
    N2123    N        0.38585    0.20760    0.52227    1.000
    N2124    N        0.35071    0.15768    0.57148    1.000
    N2125    N        0.35746    0.13810    0.50445    1.000
    Si2126   Si       0.38911    0.25281    0.61503    1.000
    Si2127   Si       0.38984    0.17025    0.50199    1.000
    Si2128   Si       0.34632    0.19866    0.58122    1.000
    Si2129   Si       0.34727    0.09161    0.65904    1.000
    N2130    N        0.38130    0.10827    0.68432    1.000
    Si2131   Si       0.36321    0.01564    0.64619    1.000
    Si2132   Si       0.38132    0.10516    0.72796    1.000
    N2133    N        0.37170    0.05643    0.64817    1.000
    N2134    N        0.37638    0.06544    0.74449    1.000
    N2135    N        0.34670    0.12915    0.73718    1.000
    Si2136   Si       0.38766    0.15164    0.67529    1.000
    N2137    N        0.39103    0.15369    0.63228    1.000
    N2138    N        0.35085    0.17455    0.68156    1.000
    N2139    N        0.37290    0.24106    0.65324    1.000
    N2140    N        0.35761    0.11529    0.80732    1.000
    N2141    N        0.35631    0.02417    0.80510    1.000
    N2142    N        0.39099    0.06570    0.85616    1.000
    Si2143   Si       0.34666    0.04138    0.76390    1.000
    Si2144   Si       0.39267    0.09277    0.82062    1.000
    Si2145   Si       0.39406    0.03197    0.82798    1.000
    N2146    N        0.36327    0.18332    0.80196    1.000
    Si2147   Si       0.35559    0.15264    0.83134    1.000
    Si2148   Si       0.38133    0.24111    0.85393    1.000
    N2149    N        0.37386    0.23480    0.76660    1.000
    N2150    N        0.38125    0.13906    0.86570    1.000
    Si2151   Si       0.33867    0.20967    0.77616    1.000
    N2152    N        0.38390    0.12417    0.98525    1.000
    N2153    N        0.37401    0.05535    0.97316    1.000
    N2154    N        0.38387    0.09038    0.92305    1.000
    Si2155   Si       0.35863    0.05388    0.93090    1.000
    N2156    N        0.37380    0.01551    0.92219    1.000
    Si2157   Si       0.36764    0.13057    0.90635    1.000
    N2158    N        0.36237    0.20955    0.87632    1.000
    N2159    N        0.38215    0.23257    0.95027    1.000
    Si2160   Si       0.37617    0.16317    0.97263    1.000
    Si2161   Si       0.36746    0.20617    0.91954    1.000
    N2162    N        0.37897    0.16452    0.93020    1.000
    Si2163   Si       0.37583    0.31364    0.07876    1.000
    N2164    N        0.37529    0.35738    0.08170    1.000
    Si2165   Si       0.38454    0.28399    0.01778    1.000
    N2166    N        0.38975    0.30880    0.12030    1.000
    N2167    N        0.34234    0.29830    0.05623    1.000
    Si2168   Si       0.36911    0.39852    0.06618    1.000
    N2169    N        0.38822    0.46444    0.09807    1.000
    N2170    N        0.35082    0.41119    0.10482    1.000
    Si2171   Si       0.36350    0.49811    0.08709    1.000
    Si2172   Si       0.34492    0.42229    0.99874    1.000
    N2173    N        0.40370    0.41633    0.04928    1.000
    Si2174   Si       0.36307    0.36815    0.12252    1.000
    Si2175   Si       0.35596    0.30426    0.14719    1.000
    N2176    N        0.36980    0.29547    0.18822    1.000
    N2177    N        0.36774    0.36084    0.21438    1.000
    Si2178   Si       0.35090    0.32194    0.21674    1.000
    Si2179   Si       0.39909    0.37900    0.19211    1.000
    N2180    N        0.38667    0.38897    0.15255    1.000
    Si2181   Si       0.39264    0.45114    0.20163    1.000
    Si2182   Si       0.38780    0.42698    0.12690    1.000
    N2183    N        0.35385    0.45930    0.22090    1.000
    N2184    N        0.39789    0.45462    0.15796    1.000
    N2185    N        0.38133    0.37017    0.33364    1.000
    Si2186   Si       0.38838    0.29287    0.26949    1.000
    N2187    N        0.35082    0.31052    0.25765    1.000
    Si2188   Si       0.34776    0.38710    0.31040    1.000
    N2189    N        0.35676    0.40739    0.27278    1.000
    N2190    N        0.35378    0.48095    0.36256    1.000
    N2191    N        0.34926    0.47446    0.29153    1.000
    Si2192   Si       0.38817    0.50175    0.34677    1.000
    Si2193   Si       0.38250    0.38639    0.24721    1.000
    N2194    N        0.34245    0.41598    0.34131    1.000
    Si2195   Si       0.36832    0.39274    0.36983    1.000
    N2196    N        0.40128    0.34910    0.47419    1.000
    N2197    N        0.37116    0.31759    0.41194    1.000
    Si2198   Si       0.38443    0.44119    0.42571    1.000
    N2199    N        0.38485    0.43676    0.46958    1.000
    N2200    N        0.39643    0.41425    0.39489    1.000
    Si2201   Si       0.35540    0.42011    0.49454    1.000
    N2202    N        0.37421    0.28972    0.59611    1.000
    Si2203   Si       0.38435    0.28878    0.55332    1.000
    Si2204   Si       0.37434    0.35296    0.50662    1.000
    N2205    N        0.35239    0.27428    0.52983    1.000
    N2206    N        0.39502    0.32816    0.53802    1.000
    N2207    N        0.37987    0.39417    0.51995    1.000
    Si2208   Si       0.36377    0.42884    0.60149    1.000
    N2209    N        0.38485    0.49428    0.50947    1.000
    N2210    N        0.35264    0.46529    0.57895    1.000
    Si2211   Si       0.36492    0.49525    0.54885    1.000
    Si2212   Si       0.37356    0.32487    0.62165    1.000
    Si2213   Si       0.37243    0.27083    0.68441    1.000
    N2214    N        0.37046    0.30954    0.66548    1.000
    N2215    N        0.34693    0.27188    0.72004    1.000
    N2216    N        0.39846    0.36971    0.68462    1.000
    N2217    N        0.38196    0.42959    0.71280    1.000
    N2218    N        0.38081    0.43862    0.64083    1.000
    N2219    N        0.37303    0.49618    0.67880    1.000
    Si2220   Si       0.37110    0.38633    0.71537    1.000
    Si2221   Si       0.36623    0.45320    0.67819    1.000
    Si2222   Si       0.38403    0.36780    0.84640    1.000
    N2223    N        0.38438    0.32573    0.86053    1.000
    N2224    N        0.34840    0.26584    0.83946    1.000
    N2225    N        0.37336    0.36820    0.75492    1.000
    Si2226   Si       0.34604    0.30852    0.84623    1.000
    N2227    N        0.39877    0.29834    0.77605    1.000
    Si2228   Si       0.38311    0.27144    0.74742    1.000
    N2229    N        0.34721    0.38287    0.86735    1.000
    N2230    N        0.36877    0.45557    0.77560    1.000
    N2231    N        0.37902    0.39646    0.81249    1.000
    Si2232   Si       0.38052    0.49092    0.79861    1.000
    Si2233   Si       0.34954    0.42382    0.79990    1.000
    N2234    N        0.34879    0.50650    0.82567    1.000
    Si2235   Si       0.40092    0.45019    0.74650    1.000
    N2236    N        0.38367    0.35599    0.97660    1.000
    Si2237   Si       0.36219    0.27527    0.94664    1.000
    N2238    N        0.39184    0.30119    0.92828    1.000
    N2239    N        0.35280    0.29013    0.98873    1.000
    Si2240   Si       0.34013    0.35535    0.97515    1.000
    N2241    N        0.34818    0.47815    0.93782    1.000
    N2242    N        0.38217    0.44044    0.89091    1.000
    Si2243   Si       0.38278    0.47941    0.91120    1.000
    Si2244   Si       0.34328    0.42661    0.87612    1.000
    N2245    N        0.38628    0.43422    0.98503    1.000
    Si2246   Si       0.36696    0.47664    0.97838    1.000
    Si2247   Si       0.36607    0.60092    0.02058    1.000
    Si2248   Si       0.35868    0.52754    0.03198    1.000
    N2249    N        0.38973    0.52586    0.06443    1.000
    N2250    N        0.34079    0.56741    0.02843    1.000
    N2251    N        0.37666    0.70531    0.04634    1.000
    Si2252   Si       0.37420    0.72872    0.08170    1.000
    Si2253   Si       0.34862    0.67906    0.02725    1.000
    N2254    N        0.39392    0.70748    0.11498    1.000
    N2255    N        0.34899    0.63723    0.03821    1.000
    N2256    N        0.34639    0.51261    0.12488    1.000
    N2257    N        0.35991    0.57701    0.15799    1.000
    Si2258   Si       0.36806    0.53446    0.15460    1.000
    N2259    N        0.35579    0.59987    0.22516    1.000
    Si2260   Si       0.39218    0.59946    0.13826    1.000
    N2261    N        0.36355    0.51995    0.19609    1.000
    N2262    N        0.37995    0.72529    0.24426    1.000
    Si2263   Si       0.38378    0.63292    0.22374    1.000
    N2264    N        0.36409    0.66586    0.20240    1.000
    N2265    N        0.37146    0.73263    0.17746    1.000
    Si2266   Si       0.35000    0.69285    0.23473    1.000
    Si2267   Si       0.34737    0.65195    0.16143    1.000
    N2268    N        0.38195    0.63998    0.13889    1.000
    N2269    N        0.36879    0.53103    0.32074    1.000
    Si2270   Si       0.35424    0.51558    0.28354    1.000
    N2271    N        0.39236    0.52554    0.26115    1.000
    N2272    N        0.39302    0.59845    0.35399    1.000
    Si2273   Si       0.34467    0.58363    0.26264    1.000
    Si2274   Si       0.36341    0.62979    0.36104    1.000
    N2275    N        0.38774    0.65263    0.26208    1.000
    N2276    N        0.36590    0.66198    0.32975    1.000
    N2277    N        0.38436    0.73120    0.31108    1.000
    Si2278   Si       0.35521    0.64941    0.29005    1.000
    Si2279   Si       0.39419    0.69264    0.33051    1.000
    Si2280   Si       0.35478    0.54616    0.44021    1.000
    N2281    N        0.39563    0.53171    0.44698    1.000
    N2282    N        0.35291    0.58469    0.41841    1.000
    Si2283   Si       0.34982    0.62564    0.43558    1.000
    N2284    N        0.38202    0.62862    0.46542    1.000
    N2285    N        0.34266    0.73857    0.48972    1.000
    N2286    N        0.36665    0.64932    0.40176    1.000
    Si2287   Si       0.37276    0.68302    0.42623    1.000
    N2288    N        0.36567    0.72636    0.41686    1.000
    N2289    N        0.37882    0.58514    0.60340    1.000
    Si2290   Si       0.38223    0.61956    0.57695    1.000
    N2291    N        0.39028    0.61074    0.53464    1.000
    Si2292   Si       0.38350    0.54083    0.60692    1.000
    N2293    N        0.39173    0.52238    0.57010    1.000
    Si2294   Si       0.36611    0.63368    0.50650    1.000
    N2295    N        0.37034    0.67660    0.51838    1.000
    Si2296   Si       0.38692    0.69453    0.60688    1.000
    N2297    N        0.34871    0.75256    0.56192    1.000
    N2298    N        0.40157    0.65419    0.59102    1.000
    N2299    N        0.34803    0.52458    0.62468    1.000
    Si2300   Si       0.34569    0.58926    0.63226    1.000
    Si2301   Si       0.38212    0.58083    0.70048    1.000
    N2302    N        0.35449    0.56800    0.66928    1.000
    N2303    N        0.39228    0.62089    0.68933    1.000
    N2304    N        0.36273    0.58257    0.74171    1.000
    N2305    N        0.34389    0.63255    0.64213    1.000
    Si2306   Si       0.34167    0.52583    0.66885    1.000
    Si2307   Si       0.38641    0.70653    0.68312    1.000
    N2308    N        0.35969    0.75700    0.62277    1.000
    Si2309   Si       0.35481    0.64368    0.68163    1.000
    N2310    N        0.38223    0.74854    0.68744    1.000
    N2311    N        0.34962    0.68677    0.68989    1.000
    N2312    N        0.38170    0.52281    0.76653    1.000
    Si2313   Si       0.36354    0.54596    0.83941    1.000
    Si2314   Si       0.35022    0.55053    0.76480    1.000
    Si2315   Si       0.39799    0.61325    0.84420    1.000
    N2316    N        0.38358    0.57908    0.86667    1.000
    Si2317   Si       0.34347    0.61921    0.75393    1.000
    N2318    N        0.35867    0.63162    0.84657    1.000
    N2319    N        0.38498    0.71929    0.75863    1.000
    Si2320   Si       0.35873    0.68828    0.77369    1.000
    N2321    N        0.36770    0.69368    0.81624    1.000
    Si2322   Si       0.37538    0.73448    0.83251    1.000
    N2323    N        0.37545    0.64799    0.76539    1.000
    N2324    N        0.35023    0.74324    0.86680    1.000
    N2325    N        0.33908    0.61044    0.91316    1.000
    N2326    N        0.37734    0.61062    0.97925    1.000
    Si2327   Si       0.35659    0.58798    0.94774    1.000
    N2328    N        0.38168    0.55593    0.93525    1.000
    N2329    N        0.39916    0.51077    0.88488    1.000
    N2330    N        0.37719    0.51659    0.99542    1.000
    Si2331   Si       0.40197    0.55263    0.89662    1.000
    Si2332   Si       0.38360    0.69340    0.96121    1.000
    N2333    N        0.34808    0.69230    0.98600    1.000
    N2334    N        0.37713    0.66620    0.92724    1.000
    Si2335   Si       0.37709    0.80671    0.07855    1.000
    N2336    N        0.38324    0.80715    0.03602    1.000
    Si2337   Si       0.37323    0.87123    0.11338    1.000
    Si2338   Si       0.35195    0.80605    0.00425    1.000
    N2339    N        0.39764    0.83865    0.09943    1.000
    N2340    N        0.34464    0.87756    0.07941    1.000
    N2341    N        0.39518    0.88515    0.02573    1.000
    Si2342   Si       0.37546    0.90205    0.06022    1.000
    Si2343   Si       0.38285    0.96493    0.01191    1.000
    N2344    N        0.38345    0.94513    0.05098    1.000
    N2345    N        0.39516    0.98235    0.11315    1.000
    N2346    N        0.39416    0.00833    0.02255    1.000
    N2347    N        0.39657    0.90643    0.10039    1.000
    Si2348   Si       0.37687    0.88485    0.19391    1.000
    N2349    N        0.36115    0.86996    0.15385    1.000
    Si2350   Si       0.37556    0.75814    0.21292    1.000
    N2351    N        0.36716    0.91000    0.22518    1.000
    N2352    N        0.36359    0.83702    0.26161    1.000
    Si2353   Si       0.38183    0.82736    0.30159    1.000
    N2354    N        0.35187    0.79730    0.31296    1.000
    N2355    N        0.39193    0.85035    0.33763    1.000
    Si2356   Si       0.36522    0.76300    0.33343    1.000
    Si2357   Si       0.35103    0.87933    0.25471    1.000
    N2358    N        0.39298    0.76802    0.36715    1.000
    N2359    N        0.37743    0.92259    0.34580    1.000
    N2360    N        0.35074    0.99099    0.33655    1.000
    Si2361   Si       0.35546    0.95647    0.36105    1.000
    N2362    N        0.39662    0.96701    0.26576    1.000
    N2363    N        0.38612    0.89330    0.28225    1.000
    Si2364   Si       0.37636    0.00401    0.26316    1.000
    Si2365   Si       0.39521    0.92567    0.25475    1.000
    Si2366   Si       0.39941    0.89145    0.32459    1.000
    N2367    N        0.36679    0.84890    0.47772    1.000
    N2368    N        0.36781    0.84136    0.41067    1.000
    N2369    N        0.38983    0.77800    0.45733    1.000
    Si2370   Si       0.39482    0.81928    0.47060    1.000
    Si2371   Si       0.34227    0.85674    0.44234    1.000
    Si2372   Si       0.39962    0.84536    0.38142    1.000
    Si2373   Si       0.35333    0.75538    0.45036    1.000
    Si2374   Si       0.36386    0.98815    0.43602    1.000
    N2375    N        0.38676    0.97158    0.46672    1.000
    N2376    N        0.37919    0.97020    0.39672    1.000
    N2377    N        0.38082    0.81028    0.57106    1.000
    Si2378   Si       0.38528    0.76567    0.58981    1.000
    N2379    N        0.36777    0.87196    0.61985    1.000
    Si2380   Si       0.38080    0.88143    0.50143    1.000
    N2381    N        0.36668    0.93132    0.58572    1.000
    Si2382   Si       0.37063    0.93834    0.54269    1.000
    N2383    N        0.36454    0.98048    0.53680    1.000
    N2384    N        0.35100    0.90744    0.51909    1.000
    N2385    N        0.36878    0.99914    0.60675    1.000
    Si2386   Si       0.39174    0.90627    0.60883    1.000
    Si2387   Si       0.34666    0.96238    0.60878    1.000
    N2388    N        0.39637    0.78700    0.74277    1.000
    Si2389   Si       0.36620    0.85486    0.65973    1.000
    Si2390   Si       0.35746    0.77519    0.66121    1.000
    N2391    N        0.38054    0.81283    0.65947    1.000
    N2392    N        0.37497    0.88238    0.69058    1.000
    Si2393   Si       0.38087    0.95243    0.67063    1.000
    Si2394   Si       0.37294    0.97870    0.74057    1.000
    N2395    N        0.36814    0.94599    0.71195    1.000
    Si2396   Si       0.34695    0.90726    0.71227    1.000
    N2397    N        0.39067    0.99539    0.67355    1.000
    N2398    N        0.37660    0.83168    0.79106    1.000
    N2399    N        0.35578    0.81241    0.85698    1.000
    Si2400   Si       0.38249    0.87095    0.77264    1.000
    Si2401   Si       0.35076    0.80543    0.81482    1.000
    N2402    N        0.36336    0.76571    0.80495    1.000
    Si2403   Si       0.36719    0.76051    0.76322    1.000
    N2404    N        0.40192    0.89488    0.80078    1.000
    N2405    N        0.35553    0.88446    0.85452    1.000
    N2406    N        0.34628    0.88650    0.75426    1.000
    N2407    N        0.38420    0.95881    0.77664    1.000
    Si2408   Si       0.39658    0.89405    0.84410    1.000
    N2409    N        0.36377    0.98994    0.86373    1.000
    N2410    N        0.40198    0.93701    0.84741    1.000
    Si2411   Si       0.38945    0.76667    0.95710    1.000
    N2412    N        0.35065    0.77494    0.97369    1.000
    Si2413   Si       0.36257    0.87137    0.95414    1.000
    N2414    N        0.39003    0.78178    0.91335    1.000
    Si2415   Si       0.35574    0.78096    0.88730    1.000
    N2416    N        0.36757    0.84185    0.98418    1.000
    N2417    N        0.34836    0.85594    0.91718    1.000
    N2418    N        0.35876    0.94774    0.93191    1.000
    Si2419   Si       0.35314    0.98190    0.90683    1.000
    N2420    N        0.39908    0.89522    0.95335    1.000
    N2421    N        0.42210    0.03840    0.08114    1.000
    N2422    N        0.42854    0.12790    0.03244    1.000
    Si2423   Si       0.45262    0.05135    0.10968    1.000
    Si2424   Si       0.45492    0.11424    0.99972    1.000
    Si2425   Si       0.43116    0.01132    0.04602    1.000
    N2426    N        0.45835    0.03735    0.02427    1.000
    N2427    N        0.45248    0.13918    0.09792    1.000
    Si2428   Si       0.43609    0.15750    0.06362    1.000
    Si2429   Si       0.44756    0.18750    0.00062    1.000
    Si2430   Si       0.42136    0.11377    0.12006    1.000
    N2431    N        0.44252    0.04829    0.19602    1.000
    N2432    N        0.44145    0.11687    0.20185    1.000
    N2433    N        0.44536    0.08368    0.13842    1.000
    Si2434   Si       0.42488    0.01204    0.20961    1.000
    Si2435   Si       0.41439    0.13173    0.23467    1.000
    Si2436   Si       0.45929    0.08555    0.17987    1.000
    N2437    N        0.46177    0.01501    0.13085    1.000
    Si2438   Si       0.43654    0.15440    0.17928    1.000
    N2439    N        0.41504    0.17199    0.21246    1.000
    N2440    N        0.40914    0.13879    0.15075    1.000
    N2441    N        0.40185    0.20671    0.14871    1.000
    N2442    N        0.44132    0.07203    0.26859    1.000
    N2443    N        0.43137    0.13635    0.27659    1.000
    N2444    N        0.42588    0.20247    0.28051    1.000
    N2445    N        0.44348    0.15420    0.34081    1.000
    Si2446   Si       0.42266    0.16614    0.30406    1.000
    N2447    N        0.45393    0.25406    0.32439    1.000
    Si2448   Si       0.40429    0.15682    0.36196    1.000
    Si2449   Si       0.44017    0.06522    0.46348    1.000
    N2450    N        0.42363    0.07483    0.42275    1.000
    N2451    N        0.40516    0.07540    0.48682    1.000
    Si2452   Si       0.40485    0.03890    0.40501    1.000
    N2453    N        0.45240    0.02682    0.47280    1.000
    N2454    N        0.43748    0.00986    0.40249    1.000
    N2455    N        0.42688    0.14171    0.43039    1.000
    N2456    N        0.41070    0.25527    0.40839    1.000
    Si2457   Si       0.41866    0.18397    0.43127    1.000
    Si2458   Si       0.44354    0.25522    0.43943    1.000
    N2459    N        0.44951    0.20963    0.44333    1.000
    N2460    N        0.43664    0.04803    0.59728    1.000
    Si2461   Si       0.43358    0.10635    0.50770    1.000
    N2462    N        0.45024    0.08757    0.54394    1.000
    Si2463   Si       0.41579    0.07364    0.56933    1.000
    N2464    N        0.40080    0.11184    0.58304    1.000
    Si2465   Si       0.42778    0.13274    0.61201    1.000
    N2466    N        0.42446    0.14751    0.51687    1.000
    Si2467   Si       0.41386    0.22387    0.55103    1.000
    N2468    N        0.45306    0.15598    0.58683    1.000
    N2469    N        0.45441    0.20702    0.54223    1.000
    Si2470   Si       0.45350    0.16419    0.54513    1.000
    N2471    N        0.43285    0.25972    0.61662    1.000
    Si2472   Si       0.40663    0.07712    0.66587    1.000
    N2473    N        0.43300    0.09846    0.63880    1.000
    N2474    N        0.43415    0.05111    0.68771    1.000
    Si2475   Si       0.42328    0.00837    0.69879    1.000
    Si2476   Si       0.45199    0.18707    0.68462    1.000
    Si2477   Si       0.44089    0.15455    0.73932    1.000
    N2478    N        0.45307    0.23029    0.68114    1.000
    N2479    N        0.41734    0.16635    0.70187    1.000
    N2480    N        0.42753    0.11954    0.82096    1.000
    Si2481   Si       0.44996    0.10408    0.78316    1.000
    N2482    N        0.41130    0.05982    0.79755    1.000
    Si2483   Si       0.41459    0.04780    0.75622    1.000
    N2484    N        0.41636    0.11747    0.75267    1.000
    N2485    N        0.45635    0.06346    0.75037    1.000
    Si2486   Si       0.42536    0.13940    0.85954    1.000
    Si2487   Si       0.44439    0.25136    0.84674    1.000
    N2488    N        0.41463    0.22753    0.82595    1.000
    N2489    N        0.42945    0.18738    0.76564    1.000
    Si2490   Si       0.39997    0.20593    0.79113    1.000
    N2491    N        0.43907    0.11093    0.89067    1.000
    N2492    N        0.43411    0.04417    0.90782    1.000
    Si2493   Si       0.41320    0.07698    0.89236    1.000
    N2494    N        0.43986    0.07967    0.97585    1.000
    Si2495   Si       0.46004    0.03992    0.98118    1.000
    Si2496   Si       0.39944    0.08864    0.96532    1.000
    N2497    N        0.45779    0.15242    0.97597    1.000
    N2498    N        0.44932    0.23014    0.98895    1.000
    Si2499   Si       0.40555    0.23174    0.98826    1.000
    Si2500   Si       0.44704    0.31540    0.05751    1.000
    N2501    N        0.45184    0.29219    0.09337    1.000
    Si2502   Si       0.45023    0.37795    0.10464    1.000
    N2503    N        0.45395    0.35881    0.06231    1.000
    N2504    N        0.40567    0.30591    0.04840    1.000
    Si2505   Si       0.42279    0.44676    0.07760    1.000
    N2506    N        0.42905    0.47043    0.04113    1.000
    N2507    N        0.42687    0.41382    0.10818    1.000
    Si2508   Si       0.42227    0.43530    0.01300    1.000
    N2509    N        0.44864    0.48303    0.10006    1.000
    Si2510   Si       0.45503    0.50014    0.05897    1.000
    N2511    N        0.43919    0.39107    0.99779    1.000
    Si2512   Si       0.40622    0.27643    0.19965    1.000
    N2513    N        0.44786    0.34623    0.13539    1.000
    N2514    N        0.41573    0.29912    0.23503    1.000
    N2515    N        0.43662    0.28067    0.16620    1.000
    N2516    N        0.43468    0.35531    0.20066    1.000
    Si2517   Si       0.43113    0.30447    0.12971    1.000
    Si2518   Si       0.43674    0.33599    0.24043    1.000
    N2519    N        0.41875    0.48113    0.21890    1.000
    N2520    N        0.40315    0.41355    0.21927    1.000
    Si2521   Si       0.41611    0.48257    0.12967    1.000
    Si2522   Si       0.45007    0.46818    0.24763    1.000
    N2523    N        0.41465    0.36546    0.26831    1.000
    Si2524   Si       0.41863    0.27838    0.33416    1.000
    Si2525   Si       0.41561    0.34934    0.31223    1.000
    N2526    N        0.45231    0.37233    0.31716    1.000
    N2527    N        0.40576    0.30716    0.30658    1.000
    N2528    N        0.42902    0.30851    0.36515    1.000
    Si2529   Si       0.44660    0.39550    0.27776    1.000
    N2530    N        0.44005    0.43704    0.27785    1.000
    Si2531   Si       0.44762    0.45622    0.31709    1.000
    N2532    N        0.42132    0.49048    0.32109    1.000
    N2533    N        0.44238    0.42944    0.34997    1.000
    N2534    N        0.44346    0.30869    0.42738    1.000
    Si2535   Si       0.43791    0.33308    0.46422    1.000
    Si2536   Si       0.40839    0.29871    0.40324    1.000
    N2537    N        0.42494    0.26838    0.47645    1.000
    N2538    N        0.44014    0.48885    0.47699    1.000
    Si2539   Si       0.43036    0.43906    0.38976    1.000
    N2540    N        0.41086    0.47168    0.40967    1.000
    Si2541   Si       0.41124    0.46054    0.49514    1.000
    Si2542   Si       0.43677    0.33812    0.54085    1.000
    Si2543   Si       0.44622    0.27923    0.51127    1.000
    N2544    N        0.42317    0.26842    0.54694    1.000
    Si2545   Si       0.45116    0.34879    0.60478    1.000
    Si2546   Si       0.45050    0.27453    0.58175    1.000
    N2547    N        0.45430    0.31685    0.57627    1.000
    N2548    N        0.44358    0.37792    0.55038    1.000
    N2549    N        0.45549    0.32210    0.50457    1.000
    N2550    N        0.40647    0.35012    0.61118    1.000
    N2551    N        0.42991    0.44205    0.53129    1.000
    N2552    N        0.44686    0.46218    0.61012    1.000
    Si2553   Si       0.41124    0.40541    0.54803    1.000
    Si2554   Si       0.45516    0.45583    0.56690    1.000
    N2555    N        0.45701    0.49873    0.55756    1.000
    N2556    N        0.40287    0.41394    0.58756    1.000
    Si2557   Si       0.44937    0.26287    0.71198    1.000
    Si2558   Si       0.43895    0.37243    0.67281    1.000
    N2559    N        0.40749    0.27343    0.71154    1.000
    N2560    N        0.45593    0.37142    0.71301    1.000
    Si2561   Si       0.45858    0.40614    0.73879    1.000
    N2562    N        0.44821    0.41081    0.65127    1.000
    N2563    N        0.45428    0.49490    0.67641    1.000
    N2564    N        0.42649    0.48583    0.73787    1.000
    Si2565   Si       0.42210    0.42886    0.62435    1.000
    N2566    N        0.42548    0.35401    0.80950    1.000
    Si2567   Si       0.43266    0.31580    0.79317    1.000
    Si2568   Si       0.44940    0.37921    0.83856    1.000
    Si2569   Si       0.40435    0.38253    0.78227    1.000
    N2570    N        0.41933    0.38852    0.86676    1.000
    N2571    N        0.42678    0.41930    0.76622    1.000
    Si2572   Si       0.44201    0.44536    0.79933    1.000
    N2573    N        0.41387    0.47251    0.81905    1.000
    Si2574   Si       0.42215    0.50350    0.84911    1.000
    Si2575   Si       0.45766    0.37834    0.95989    1.000
    N2576    N        0.41557    0.28266    0.98385    1.000
    N2577    N        0.44946    0.33712    0.95321    1.000
    Si2578   Si       0.40926    0.32129    0.96265    1.000
    Si2579   Si       0.40889    0.30387    0.88735    1.000
    N2580    N        0.45210    0.31280    0.88671    1.000
    N2581    N        0.41145    0.26231    0.87653    1.000
    N2582    N        0.45504    0.45385    0.98567    1.000
    Si2583   Si       0.40105    0.39413    0.97270    1.000
    N2584    N        0.40908    0.48850    0.94635    1.000
    N2585    N        0.42313    0.39595    0.93689    1.000
    Si2586   Si       0.41918    0.41758    0.89758    1.000
    Si2587   Si       0.44814    0.47006    0.94542    1.000
    N2588    N        0.44751    0.45143    0.90420    1.000
    Si2589   Si       0.43433    0.62167    0.03671    1.000
    Si2590   Si       0.41599    0.55947    0.06737    1.000
    N2591    N        0.41234    0.57651    0.10741    1.000
    N2592    N        0.45554    0.54358    0.06361    1.000
    N2593    N        0.40292    0.59198    0.04272    1.000
    Si2594   Si       0.41488    0.69561    0.02689    1.000
    N2595    N        0.42786    0.66229    0.05032    1.000
    N2596    N        0.43325    0.73556    0.03143    1.000
    N2597    N        0.44961    0.66683    0.11361    1.000
    Si2598   Si       0.43410    0.55580    0.13959    1.000
    N2599    N        0.42716    0.59008    0.16379    1.000
    N2600    N        0.43395    0.55292    0.21626    1.000
    N2601    N        0.40909    0.52173    0.14800    1.000
    Si2602   Si       0.44741    0.59478    0.19952    1.000
    N2603    N        0.42744    0.63094    0.21632    1.000
    Si2604   Si       0.40241    0.52198    0.21904    1.000
    N2605    N        0.44546    0.69287    0.23830    1.000
    N2606    N        0.42878    0.69059    0.16590    1.000
    Si2607   Si       0.44163    0.66846    0.20281    1.000
    Si2608   Si       0.40442    0.72588    0.15242    1.000
    Si2609   Si       0.40983    0.66994    0.12780    1.000
    N2610    N        0.43813    0.55728    0.31045    1.000
    Si2611   Si       0.42363    0.52218    0.29028    1.000
    Si2612   Si       0.42110    0.56544    0.35168    1.000
    N2613    N        0.45807    0.57534    0.37296    1.000
    N2614    N        0.42623    0.68757    0.30062    1.000
    Si2615   Si       0.42979    0.65934    0.26314    1.000
    Si2616   Si       0.41053    0.72124    0.27463    1.000
    N2617    N        0.45231    0.65022    0.35503    1.000
    N2618    N        0.44300    0.75032    0.27155    1.000
    N2619    N        0.40760    0.70010    0.37036    1.000
    N2620    N        0.44120    0.59653    0.47287    1.000
    Si2621   Si       0.41939    0.51371    0.41307    1.000
    Si2622   Si       0.41051    0.52126    0.48708    1.000
    N2623    N        0.40579    0.52893    0.37373    1.000
    Si2624   Si       0.42479    0.63266    0.45557    1.000
    N2625    N        0.44006    0.63412    0.41444    1.000
    Si2626   Si       0.40220    0.73328    0.39632    1.000
    N2627    N        0.44117    0.66088    0.48299    1.000
    N2628    N        0.44348    0.75216    0.40024    1.000
    Si2629   Si       0.43590    0.70234    0.47065    1.000
    N2630    N        0.41549    0.69258    0.43297    1.000
    Si2631   Si       0.43517    0.67374    0.39520    1.000
    Si2632   Si       0.42943    0.59052    0.51466    1.000
    Si2633   Si       0.42894    0.53359    0.55579    1.000
    N2634    N        0.42662    0.54879    0.51577    1.000
    N2635    N        0.44758    0.56339    0.58191    1.000
    Si2636   Si       0.44557    0.66191    0.58617    1.000
    N2637    N        0.44353    0.67866    0.54442    1.000
    Si2638   Si       0.40634    0.70154    0.53660    1.000
    N2639    N        0.41685    0.72627    0.50219    1.000
    N2640    N        0.40271    0.72261    0.57754    1.000
    Si2641   Si       0.45500    0.54987    0.62218    1.000
    N2642    N        0.44188    0.61884    0.73734    1.000
    N2643    N        0.41725    0.53182    0.63410    1.000
    N2644    N        0.41045    0.54652    0.70419    1.000
    Si2645   Si       0.41318    0.51425    0.67463    1.000
    Si2646   Si       0.41800    0.52883    0.74305    1.000
    Si2647   Si       0.42948    0.64202    0.70133    1.000
    N2648    N        0.45373    0.64696    0.66757    1.000
    Si2649   Si       0.44672    0.68804    0.65549    1.000
    N2650    N        0.41591    0.68271    0.70611    1.000
    Si2651   Si       0.42232    0.70272    0.74387    1.000
    N2652    N        0.40528    0.70039    0.64449    1.000
    N2653    N        0.44283    0.74109    0.73241    1.000
    Si2654   Si       0.43433    0.56554    0.80396    1.000
    N2655    N        0.41276    0.60517    0.80415    1.000
    N2656    N        0.44599    0.55538    0.76388    1.000
    N2657    N        0.40985    0.53770    0.82609    1.000
    Si2658   Si       0.41678    0.63678    0.77018    1.000
    N2659    N        0.42342    0.63829    0.86691    1.000
    N2660    N        0.43929    0.67622    0.77359    1.000
    N2661    N        0.41552    0.74595    0.84459    1.000
    Si2662   Si       0.44932    0.72319    0.86620    1.000
    N2663    N        0.44181    0.56837    0.89655    1.000
    N2664    N        0.44261    0.54471    0.96879    1.000
    N2665    N        0.43091    0.62949    0.93303    1.000
    Si2666   Si       0.40271    0.52966    0.96290    1.000
    N2667    N        0.44480    0.61340    0.99641    1.000
    Si2668   Si       0.45899    0.60421    0.91488    1.000
    Si2669   Si       0.41507    0.63493    0.97275    1.000
    N2670    N        0.40566    0.72830    0.95061    1.000
    Si2671   Si       0.41505    0.65928    0.90555    1.000
    Si2672   Si       0.44758    0.72012    0.93320    1.000
    N2673    N        0.43286    0.69777    0.89823    1.000
    N2674    N        0.41356    0.67505    0.98621    1.000
    Si2675   Si       0.43981    0.84610    0.10502    1.000
    Si2676   Si       0.41279    0.77324    0.03763    1.000
    Si2677   Si       0.43959    0.76571    0.10712    1.000
    N2678    N        0.44981    0.79691    0.03945    1.000
    N2679    N        0.40171    0.76689    0.08171    1.000
    Si2680   Si       0.40145    0.84474    0.01330    1.000
    Si2681   Si       0.41153    0.95215    0.08469    1.000
    N2682    N        0.44105    0.96979    0.05789    1.000
    N2683    N        0.45801    0.91243    0.00697    1.000
    Si2684   Si       0.44299    0.85546    0.18411    1.000
    N2685    N        0.44038    0.86758    0.14187    1.000
    Si2686   Si       0.44184    0.77795    0.18794    1.000
    N2687    N        0.40731    0.85437    0.21004    1.000
    N2688    N        0.40854    0.78567    0.21531    1.000
    N2689    N        0.43285    0.75740    0.15038    1.000
    Si2690   Si       0.40129    0.82390    0.24123    1.000
    N2691    N        0.42349    0.97953    0.18109    1.000
    N2692    N        0.43777    0.92799    0.23802    1.000
    N2693    N        0.44491    0.94382    0.12076    1.000
    Si2694   Si       0.43008    0.98295    0.13733    1.000
    Si2695   Si       0.43464    0.93841    0.19492    1.000
    Si2696   Si       0.42509    0.90772    0.13477    1.000
    N2697    N        0.40877    0.91109    0.17396    1.000
    N2698    N        0.41916    0.81538    0.28018    1.000
    Si2699   Si       0.44989    0.78802    0.28916    1.000
    Si2700   Si       0.43578    0.78150    0.36930    1.000
    N2701    N        0.45717    0.77669    0.33103    1.000
    N2702    N        0.44143    0.89434    0.33509    1.000
    N2703    N        0.42027    0.98870    0.34555    1.000
    Si2704   Si       0.44086    0.96360    0.26411    1.000
    N2705    N        0.45031    0.00189    0.24381    1.000
    Si2706   Si       0.41871    0.76854    0.48967    1.000
    N2707    N        0.43821    0.82272    0.38049    1.000
    N2708    N        0.43134    0.83955    0.45777    1.000
    N2709    N        0.41855    0.88116    0.40118    1.000
    Si2710   Si       0.42881    0.88265    0.44406    1.000
    N2711    N        0.45451    0.95783    0.48185    1.000
    Si2712   Si       0.41412    0.94428    0.48526    1.000
    N2713    N        0.44494    0.93939    0.39103    1.000
    N2714    N        0.40412    0.90371    0.47141    1.000
    Si2715   Si       0.42128    0.97329    0.38605    1.000
    Si2716   Si       0.44786    0.89973    0.37723    1.000
    Si2717   Si       0.41165    0.82681    0.54733    1.000
    N2718    N        0.42073    0.78044    0.61511    1.000
    N2719    N        0.45307    0.81565    0.55974    1.000
    N2720    N        0.40647    0.86800    0.53570    1.000
    N2721    N        0.40443    0.80422    0.51116    1.000
    Si2722   Si       0.45698    0.79256    0.59659    1.000
    N2723    N        0.43348    0.91024    0.58853    1.000
    Si2724   Si       0.43136    0.90291    0.54630    1.000
    N2725    N        0.41019    0.93554    0.52800    1.000
    Si2726   Si       0.44392    0.94227    0.61496    1.000
    Si2727   Si       0.42557    0.80884    0.65092    1.000
    Si2728   Si       0.41479    0.87368    0.70482    1.000
    Si2729   Si       0.41258    0.76794    0.70929    1.000
    N2730    N        0.43068    0.85181    0.67044    1.000
    N2731    N        0.44328    0.78410    0.68316    1.000
    N2732    N        0.41251    0.85455    0.74379    1.000
    N2733    N        0.40608    0.93416    0.64015    1.000
    N2734    N        0.44038    0.90977    0.70517    1.000
    N2735    N        0.45929    0.98545    0.69126    1.000
    N2736    N        0.40765    0.00828    0.73797    1.000
    N2737    N        0.44134    0.78998    0.79283    1.000
    Si2738   Si       0.41194    0.81775    0.76864    1.000
    Si2739   Si       0.44365    0.77689    0.83393    1.000
    N2740    N        0.44263    0.81035    0.86289    1.000
    N2741    N        0.42286    0.87707    0.87293    1.000
    Si2742   Si       0.40735    0.93835    0.80444    1.000
    N2743    N        0.44824    0.95318    0.80068    1.000
    N2744    N        0.42412    0.00314    0.83950    1.000
    Si2745   Si       0.40541    0.97532    0.86626    1.000
    Si2746   Si       0.45091    0.84841    0.88553    1.000
    N2747    N        0.42031    0.78753    0.98209    1.000
    Si2748   Si       0.43098    0.78865    0.90059    1.000
    N2749    N        0.44059    0.82573    0.92242    1.000
    Si2750   Si       0.44615    0.82067    0.96572    1.000
    N2751    N        0.43869    0.85369    0.99227    1.000
    N2752    N        0.45827    0.75526    0.90633    1.000
    N2753    N        0.44412    0.00444    0.96028    1.000
    Si2754   Si       0.41785    0.90299    0.99221    1.000
    N2755    N        0.45907    0.93358    0.94153    1.000
    N2756    N        0.41395    0.97009    0.90848    1.000
    N2757    N        0.41070    0.95001    0.98125    1.000
    Si2758   Si       0.45384    0.96229    0.97313    1.000
    Si2759   Si       0.40184    0.93876    0.93897    1.000
    Si2760   Si       0.41810    0.01084    0.92534    1.000
    N2761    N        0.49175    0.09932    0.01715    1.000
    N2762    N        0.48374    0.06967    0.08448    1.000
    Si2763   Si       0.48870    0.06169    0.04387    1.000
    N2764    N        0.52050    0.03210    0.04185    1.000
    Si2765   Si       0.51832    0.07501    0.11006    1.000
    N2766    N        0.49448    0.24134    0.06862    1.000
    Si2767   Si       0.49896    0.19907    0.06172    1.000
    N2768    N        0.50947    0.17638    0.09823    1.000
    N2769    N        0.46354    0.18378    0.04064    1.000
    N2770    N        0.50104    0.08574    0.19553    1.000
    N2771    N        0.51177    0.11212    0.13019    1.000
    Si2772   Si       0.51079    0.08839    0.23846    1.000
    Si2773   Si       0.48718    0.14586    0.12129    1.000
    N2774    N        0.47592    0.15978    0.16260    1.000
    Si2775   Si       0.50737    0.23168    0.23429    1.000
    Si2776   Si       0.50957    0.17725    0.18426    1.000
    N2777    N        0.49854    0.18997    0.22375    1.000
    N2778    N        0.50568    0.24808    0.19247    1.000
    Si2779   Si       0.49026    0.05666    0.33130    1.000
    N2780    N        0.47833    0.09766    0.32395    1.000
    N2781    N        0.49514    0.12122    0.26043    1.000
    N2782    N        0.46967    0.02551    0.30788    1.000
    N2783    N        0.50680    0.04769    0.25488    1.000
    Si2784   Si       0.46562    0.03515    0.26621    1.000
    Si2785   Si       0.46129    0.10739    0.28469    1.000
    Si2786   Si       0.47746    0.13161    0.35338    1.000
    Si2787   Si       0.50681    0.16316    0.25887    1.000
    N2788    N        0.49347    0.18861    0.29494    1.000
    N2789    N        0.47519    0.24838    0.25861    1.000
    N2790    N        0.50939    0.16181    0.35924    1.000
    Si2791   Si       0.46363    0.22357    0.29142    1.000
    N2792    N        0.46454    0.10029    0.47147    1.000
    N2793    N        0.49419    0.04696    0.37357    1.000
    N2794    N        0.48672    0.11559    0.39449    1.000
    Si2795   Si       0.50717    0.08936    0.47477    1.000
    Si2796   Si       0.46535    0.12278    0.43228    1.000
    Si2797   Si       0.51339    0.08044    0.39372    1.000
    Si2798   Si       0.47898    0.00983    0.39496    1.000
    N2799    N        0.48823    0.25469    0.44598    1.000
    Si2800   Si       0.51306    0.15727    0.40469    1.000
    Si2801   Si       0.50611    0.15813    0.48821    1.000
    N2802    N        0.51367    0.20192    0.48473    1.000
    Si2803   Si       0.49187    0.20652    0.44751    1.000
    N2804    N        0.49002    0.15746    0.44418    1.000
    N2805    N        0.49444    0.03519    0.56925    1.000
    Si2806   Si       0.49210    0.07309    0.54922    1.000
    N2807    N        0.50906    0.06527    0.50978    1.000
    Si2808   Si       0.46602    0.01578    0.59689    1.000
    N2809    N        0.51858    0.10182    0.57273    1.000
    N2810    N        0.49425    0.15312    0.52995    1.000
    Si2811   Si       0.49326    0.23096    0.54051    1.000
    Si2812   Si       0.48023    0.17401    0.61518    1.000
    Si2813   Si       0.51376    0.24409    0.61052    1.000
    Si2814   Si       0.49368    0.00909    0.67680    1.000
    Si2815   Si       0.46803    0.06794    0.70934    1.000
    N2816    N        0.50113    0.04089    0.70509    1.000
    N2817    N        0.47424    0.10884    0.69915    1.000
    N2818    N        0.48078    0.02618    0.63864    1.000
    N2819    N        0.49506    0.09224    0.63665    1.000
    Si2820   Si       0.48820    0.12697    0.66446    1.000
    Si2821   Si       0.46105    0.06499    0.63038    1.000
    N2822    N        0.48724    0.21376    0.62555    1.000
    Si2823   Si       0.46450    0.24628    0.64337    1.000
    N2824    N        0.47760    0.18173    0.72047    1.000
    N2825    N        0.46032    0.15806    0.65138    1.000
    Si2826   Si       0.49142    0.05089    0.77380    1.000
    N2827    N        0.48428    0.08438    0.80256    1.000
    N2828    N        0.50510    0.10565    0.86421    1.000
    N2829    N        0.48656    0.01338    0.79329    1.000
    Si2830   Si       0.51415    0.10513    0.82257    1.000
    N2831    N        0.47290    0.13774    0.76821    1.000
    N2832    N        0.50619    0.20175    0.77968    1.000
    Si2833   Si       0.51118    0.15835    0.77251    1.000
    Si2834   Si       0.46672    0.20788    0.75789    1.000
    N2835    N        0.47874    0.23431    0.86770    1.000
    N2836    N        0.46099    0.25132    0.75301    1.000
    N2837    N        0.50477    0.03178    0.97544    1.000
    Si2838   Si       0.48000    0.12701    0.89052    1.000
    N2839    N        0.50165    0.13247    0.92636    1.000
    N2840    N        0.48819    0.20134    0.93057    1.000
    Si2841   Si       0.49203    0.16518    0.95204    1.000
    Si2842   Si       0.48600    0.19567    0.88712    1.000
    Si2843   Si       0.50649    0.24073    0.94218    1.000
    N2844    N        0.46112    0.16452    0.87185    1.000
    Si2845   Si       0.49283    0.27668    0.09204    1.000
    N2846    N        0.50388    0.35656    0.01363    1.000
    Si2847   Si       0.50894    0.31833    0.03182    1.000
    N2848    N        0.46934    0.29748    0.02370    1.000
    N2849    N        0.51285    0.31302    0.07685    1.000
    Si2850   Si       0.46895    0.37906    0.02846    1.000
    N2851    N        0.49111    0.39218    0.10987    1.000
    N2852    N        0.48449    0.41765    0.04105    1.000
    N2853    N        0.49337    0.48679    0.04262    1.000
    Si2854   Si       0.48787    0.45413    0.01585    1.000
    Si2855   Si       0.51208    0.40665    0.07597    1.000
    N2856    N        0.49555    0.31731    0.17995    1.000
    Si2857   Si       0.48173    0.27660    0.17035    1.000
    Si2858   Si       0.46805    0.34925    0.17436    1.000
    N2859    N        0.50037    0.26566    0.13397    1.000
    Si2860   Si       0.48292    0.50207    0.12219    1.000
    N2861    N        0.49785    0.47655    0.15350    1.000
    N2862    N        0.48090    0.45235    0.21976    1.000
    N2863    N        0.49241    0.38588    0.17962    1.000
    Si2864   Si       0.50139    0.48107    0.19517    1.000
    Si2865   Si       0.51657    0.38726    0.14519    1.000
    Si2866   Si       0.49679    0.41112    0.21569    1.000
    Si2867   Si       0.49102    0.28722    0.26744    1.000
    Si2868   Si       0.50604    0.35543    0.26388    1.000
    Si2869   Si       0.49278    0.26826    0.34293    1.000
    N2870    N        0.47594    0.32626    0.25716    1.000
    N2871    N        0.50745    0.28851    0.30782    1.000
    N2872    N        0.50640    0.40591    0.34295    1.000
    N2873    N        0.48952    0.46743    0.31550    1.000
    N2874    N        0.48367    0.39186    0.25337    1.000
    Si2875   Si       0.49797    0.50403    0.28957    1.000
    Si2876   Si       0.46728    0.39323    0.35156    1.000
    N2877    N        0.46276    0.50985    0.26560    1.000
    N2878    N        0.49540    0.29849    0.37462    1.000
    N2879    N        0.47239    0.36293    0.45428    1.000
    Si2880   Si       0.51014    0.27502    0.47701    1.000
    N2881    N        0.46867    0.36426    0.38393    1.000
    Si2882   Si       0.46304    0.32331    0.38919    1.000
    N2883    N        0.51931    0.31756    0.47528    1.000
    Si2884   Si       0.49194    0.34572    0.49185    1.000
    Si2885   Si       0.48015    0.38696    0.41973    1.000
    N2886    N        0.51043    0.47189    0.43981    1.000
    Si2887   Si       0.47743    0.49912    0.45426    1.000
    Si2888   Si       0.50752    0.44372    0.40776    1.000
    N2889    N        0.46706    0.42859    0.41252    1.000
    N2890    N        0.49233    0.36713    0.59770    1.000
    N2891    N        0.50661    0.37169    0.52241    1.000
    N2892    N        0.48577    0.26317    0.51071    1.000
    N2893    N        0.48968    0.25501    0.57626    1.000
    Si2894   Si       0.48616    0.38612    0.55857    1.000
    N2895    N        0.49137    0.43104    0.56076    1.000
    N2896    N        0.47238    0.29773    0.70244    1.000
    N2897    N        0.49683    0.27511    0.63847    1.000
    Si2898   Si       0.48616    0.31013    0.66252    1.000
    Si2899   Si       0.47777    0.33475    0.72790    1.000
    N2900    N        0.45743    0.34092    0.64750    1.000
    N2901    N        0.51661    0.40021    0.68521    1.000
    N2902    N        0.46857    0.43855    0.71035    1.000
    N2903    N        0.50311    0.45660    0.64764    1.000
    Si2904   Si       0.48366    0.42712    0.67235    1.000
    Si2905   Si       0.47181    0.48558    0.63737    1.000
    N2906    N        0.49675    0.50340    0.73623    1.000
    Si2907   Si       0.46417    0.48046    0.71775    1.000
    N2908    N        0.48488    0.35545    0.84707    1.000
    Si2909   Si       0.47894    0.31198    0.85112    1.000
    N2910    N        0.46933    0.31773    0.76752    1.000
    Si2911   Si       0.47871    0.27646    0.78240    1.000
    N2912    N        0.45703    0.28531    0.81980    1.000
    N2913    N        0.48137    0.46637    0.79633    1.000
    N2914    N        0.49568    0.40097    0.76041    1.000
    Si2915   Si       0.50220    0.42595    0.79738    1.000
    Si2916   Si       0.49408    0.48869    0.83314    1.000
    Si2917   Si       0.51253    0.48852    0.77362    1.000
    N2918    N        0.46426    0.41353    0.81915    1.000
    N2919    N        0.50784    0.46241    0.86616    1.000
    N2920    N        0.46273    0.50494    0.85927    1.000
    N2921    N        0.48078    0.27483    0.94984    1.000
    Si2922   Si       0.47487    0.31163    0.92545    1.000
    N2923    N        0.51364    0.33264    0.91681    1.000
    Si2924   Si       0.45756    0.27354    0.98931    1.000
    Si2925   Si       0.52097    0.48632    0.95122    1.000
    Si2926   Si       0.47828    0.47938    0.89200    1.000
    N2927    N        0.48294    0.49520    0.93205    1.000
    N2928    N        0.49968    0.39193    0.95966    1.000
    Si2929   Si       0.48473    0.57380    0.05505    1.000
    N2930    N        0.49198    0.56862    0.01351    1.000
    N2931    N        0.46889    0.61445    0.06216    1.000
    N2932    N        0.49368    0.68890    0.05487    1.000
    Si2933   Si       0.47237    0.72772    0.05130    1.000
    N2934    N        0.47069    0.74300    0.09118    1.000
    N2935    N        0.49972    0.75411    0.02948    1.000
    Si2936   Si       0.47333    0.65590    0.07911    1.000
    N2937    N        0.51119    0.64424    0.10410    1.000
    Si2938   Si       0.50656    0.74035    0.11690    1.000
    N2939    N        0.50013    0.52639    0.20741    1.000
    N2940    N        0.47266    0.53945    0.13933    1.000
    Si2941   Si       0.50019    0.55282    0.17294    1.000
    N2942    N        0.48980    0.59195    0.18854    1.000
    Si2943   Si       0.47001    0.54383    0.23650    1.000
    Si2944   Si       0.51146    0.63252    0.19108    1.000
    N2945    N        0.47938    0.66192    0.18480    1.000
    N2946    N        0.47276    0.75333    0.20964    1.000
    N2947    N        0.50788    0.70232    0.13627    1.000
    Si2948   Si       0.47003    0.68362    0.14851    1.000
    Si2949   Si       0.47175    0.72693    0.24413    1.000
    Si2950   Si       0.49838    0.61792    0.26742    1.000
    Si2951   Si       0.48062    0.57207    0.30543    1.000
    N2952    N        0.50311    0.53598    0.31508    1.000
    N2953    N        0.47843    0.57676    0.26009    1.000
    N2954    N        0.51381    0.60431    0.30688    1.000
    N2955    N        0.49825    0.68944    0.33192    1.000
    N2956    N        0.50939    0.72195    0.26527    1.000
    N2957    N        0.46607    0.64277    0.28162    1.000
    Si2958   Si       0.46251    0.66905    0.31845    1.000
    N2959    N        0.49112    0.53403    0.47810    1.000
    Si2960   Si       0.48527    0.54943    0.39478    1.000
    Si2961   Si       0.47828    0.57444    0.46584    1.000
    N2962    N        0.49349    0.57841    0.42688    1.000
    Si2963   Si       0.46396    0.61856    0.38267    1.000
    N2964    N        0.51390    0.59061    0.48818    1.000
    N2965    N        0.50653    0.63034    0.38631    1.000
    N2966    N        0.46197    0.51805    0.41471    1.000
    N2967    N        0.51687    0.74964    0.41485    1.000
    Si2968   Si       0.50327    0.67238    0.37128    1.000
    Si2969   Si       0.49022    0.75140    0.48643    1.000
    N2970    N        0.47648    0.69408    0.39783    1.000
    N2971    N        0.47322    0.72212    0.46140    1.000
    Si2972   Si       0.47723    0.73256    0.42022    1.000
    Si2973   Si       0.48043    0.59438    0.56853    1.000
    N2974    N        0.50059    0.55285    0.54669    1.000
    Si2975   Si       0.49486    0.51785    0.57041    1.000
    N2976    N        0.46590    0.62788    0.59830    1.000
    Si2977   Si       0.51749    0.55023    0.50838    1.000
    N2978    N        0.48945    0.51784    0.61561    1.000
    N2979    N        0.46022    0.61326    0.53476    1.000
    N2980    N        0.50193    0.73516    0.52635    1.000
    N2981    N        0.50463    0.66208    0.50758    1.000
    Si2982   Si       0.46406    0.65286    0.51756    1.000
    N2983    N        0.46051    0.69161    0.61260    1.000
    N2984    N        0.51840    0.62268    0.65501    1.000
    Si2985   Si       0.47655    0.62246    0.64349    1.000
    N2986    N        0.50059    0.57922    0.71397    1.000
    Si2987   Si       0.51359    0.57831    0.66399    1.000
    N2988    N        0.47230    0.57901    0.64746    1.000
    Si2989   Si       0.51639    0.53678    0.71897    1.000
    Si2990   Si       0.47542    0.75552    0.69799    1.000
    N2991    N        0.46867    0.72376    0.66680    1.000
    Si2992   Si       0.48499    0.72621    0.62272    1.000
    Si2993   Si       0.50258    0.59434    0.81666    1.000
    N2994    N        0.50302    0.59356    0.77269    1.000
    N2995    N        0.46860    0.57193    0.83048    1.000
    Si2996   Si       0.46975    0.55031    0.86678    1.000
    Si2997   Si       0.46892    0.58770    0.74538    1.000
    N2998    N        0.49550    0.63636    0.82695    1.000
    N2999    N        0.48196    0.73196    0.78954    1.000
    Si3000   Si       0.46581    0.65076    0.85498    1.000
    Si3001   Si       0.47671    0.68795    0.79382    1.000
    N3002    N        0.51437    0.67595    0.77192    1.000
    N3003    N        0.46909    0.69177    0.83918    1.000
    Si3004   Si       0.51135    0.74037    0.82428    1.000
    N3005    N        0.48818    0.58631    0.94505    1.000
    Si3006   Si       0.49194    0.54057    0.93412    1.000
    N3007    N        0.50571    0.54599    0.89253    1.000
    Si3008   Si       0.46397    0.57836    0.98010    1.000
    N3009    N        0.48984    0.69873    0.93022    1.000
    Si3010   Si       0.50399    0.71914    0.96432    1.000
    N3011    N        0.48491    0.63138    0.89102    1.000
    N3012    N        0.46655    0.73525    0.97196    1.000
    Si3013   Si       0.50694    0.66368    0.91043    1.000
    Si3014   Si       0.47462    0.81488    0.06752    1.000
    N3015    N        0.46746    0.85903    0.07253    1.000
    N3016    N        0.51373    0.87384    0.02174    1.000
    Si3017   Si       0.46415    0.76793    0.00332    1.000
    N3018    N        0.51681    0.80749    0.06543    1.000
    N3019    N        0.45830    0.80764    0.10731    1.000
    Si3020   Si       0.47904    0.87644    0.99612    1.000
    Si3021   Si       0.50102    0.88311    0.06216    1.000
    Si3022   Si       0.46909    0.94607    0.03492    1.000
    N3023    N        0.49431    0.92766    0.06571    1.000
    Si3024   Si       0.48620    0.93760    0.10687    1.000
    N3025    N        0.48393    0.97195    0.00391    1.000
    Si3026   Si       0.51519    0.00337    0.00693    1.000
    Si3027   Si       0.50965    0.76835    0.19112    1.000
    N3028    N        0.50355    0.76915    0.14864    1.000
    N3029    N        0.47666    0.87549    0.20602    1.000
    Si3030   Si       0.48719    0.80902    0.14198    1.000
    Si3031   Si       0.51389    0.85026    0.20610    1.000
    N3032    N        0.46193    0.81579    0.17620    1.000
    N3033    N        0.51345    0.96931    0.12218    1.000
    Si3034   Si       0.50330    0.00450    0.14329    1.000
    N3035    N        0.47675    0.93722    0.18701    1.000
    N3036    N        0.49962    0.90201    0.12956    1.000
    N3037    N        0.50518    0.93929    0.24353    1.000
    Si3038   Si       0.50280    0.90820    0.17393    1.000
    N3039    N        0.50328    0.99928    0.18489    1.000
    Si3040   Si       0.51224    0.96155    0.20430    1.000
    Si3041   Si       0.47658    0.90666    0.23967    1.000
    N3042    N        0.48962    0.81028    0.28754    1.000
    Si3043   Si       0.49965    0.79149    0.32500    1.000
    N3044    N        0.50730    0.81714    0.35863    1.000
    Si3045   Si       0.50674    0.84871    0.28096    1.000
    N3046    N        0.48122    0.88599    0.27785    1.000
    Si3047   Si       0.47277    0.91260    0.31158    1.000
    N3048    N        0.48696    0.98311    0.36058    1.000
    N3049    N        0.51174    0.91881    0.33167    1.000
    Si3050   Si       0.51433    0.94905    0.36199    1.000
    N3051    N        0.46028    0.95325    0.29968    1.000
    Si3052   Si       0.45906    0.98835    0.32718    1.000
    Si3053   Si       0.48011    0.83240    0.39009    1.000
    N3054    N        0.48880    0.81383    0.42923    1.000
    Si3055   Si       0.46830    0.81971    0.46635    1.000
    N3056    N        0.48203    0.87425    0.38854    1.000
    N3057    N        0.45961    0.78104    0.48524    1.000
    N3058    N        0.51726    0.93855    0.47339    1.000
    Si3059   Si       0.47881    0.99218    0.47244    1.000
    Si3060   Si       0.47905    0.92179    0.48776    1.000
    N3061    N        0.47084    0.89386    0.45165    1.000
    N3062    N        0.49756    0.99163    0.43040    1.000
    Si3063   Si       0.50314    0.89368    0.42105    1.000
    N3064    N        0.51775    0.93033    0.40236    1.000
    Si3065   Si       0.48755    0.82625    0.53519    1.000
    N3066    N        0.50408    0.85519    0.56637    1.000
    Si3067   Si       0.49976    0.84385    0.60915    1.000
    Si3068   Si       0.51493    0.76051    0.55893    1.000
    N3069    N        0.48576    0.75904    0.59343    1.000
    N3070    N        0.49598    0.83909    0.49515    1.000
    N3071    N        0.50960    0.94608    0.54024    1.000
    N3072    N        0.46700    0.97270    0.59409    1.000
    Si3073   Si       0.50724    0.95644    0.58244    1.000
    N3074    N        0.47018    0.90103    0.52567    1.000
    Si3075   Si       0.50859    0.89903    0.54937    1.000
    N3076    N        0.51317    0.91481    0.59236    1.000
    N3077    N        0.51230    0.99899    0.49889    1.000
    N3078    N        0.46665    0.82048    0.62938    1.000
    N3079    N        0.50123    0.86947    0.64389    1.000
    N3080    N        0.48308    0.85225    0.71196    1.000
    Si3081   Si       0.47388    0.84545    0.66780    1.000
    N3082    N        0.48947    0.78232    0.73493    1.000
    Si3083   Si       0.49803    0.82409    0.74115    1.000
    Si3084   Si       0.51026    0.91029    0.63558    1.000
    N3085    N        0.47283    0.93404    0.64605    1.000
    Si3086   Si       0.47550    0.89502    0.72338    1.000
    Si3087   Si       0.46434    0.94243    0.68678    1.000
    N3088    N        0.49927    0.92775    0.70852    1.000
    N3089    N        0.50345    0.83295    0.78298    1.000
    Si3090   Si       0.50702    0.87528    0.79068    1.000
    Si3091   Si       0.46477    0.76372    0.76670    1.000
    N3092    N        0.47776    0.75383    0.85017    1.000
    N3093    N        0.49280    0.98036    0.84696    1.000
    Si3094   Si       0.48115    0.92792    0.79488    1.000
    N3095    N        0.47877    0.89754    0.76454    1.000
    N3096    N        0.49485    0.89853    0.82544    1.000
    Si3097   Si       0.51373    0.89794    0.86389    1.000
    Si3098   Si       0.45912    0.99115    0.82062    1.000
    N3099    N        0.51869    0.95125    0.79207    1.000
    N3100    N        0.49696    0.87543    0.95376    1.000
    Si3101   Si       0.49809    0.76580    0.88591    1.000
    N3102    N        0.51156    0.79935    0.90994    1.000
    N3103    N        0.49012    0.86749    0.88850    1.000
    N3104    N        0.48257    0.79994    0.97674    1.000
    Si3105   Si       0.51644    0.79175    0.95176    1.000
    N3106    N        0.50688    0.92963    0.89374    1.000
    Si3107   Si       0.48330    0.90220    0.92241    1.000
    N3108    N        0.55123    0.07898    0.08345    1.000
    Si3109   Si       0.56013    0.04128    0.05866    1.000
    N3110    N        0.55693    0.11632    0.03280    1.000
    Si3111   Si       0.52608    0.12338    0.00294    1.000
    Si3112   Si       0.57129    0.11629    0.07279    1.000
    N3113    N        0.57373    0.01294    0.08798    1.000
    N3114    N        0.53790    0.19723    0.03869    1.000
    Si3115   Si       0.54829    0.18438    0.11569    1.000
    N3116    N        0.57443    0.21558    0.09759    1.000
    Si3117   Si       0.57435    0.21193    0.05373    1.000
    N3118    N        0.57500    0.25030    0.03281    1.000
    N3119    N        0.57690    0.15286    0.09884    1.000
    N3120    N        0.52777    0.03808    0.13226    1.000
    Si3121   Si       0.52886    0.10837    0.17016    1.000
    N3122    N        0.56660    0.08756    0.16470    1.000
    Si3123   Si       0.56950    0.02774    0.13021    1.000
    N3124    N        0.55512    0.09943    0.24085    1.000
    N3125    N        0.53662    0.14331    0.19208    1.000
    Si3126   Si       0.56485    0.13779    0.22513    1.000
    N3127    N        0.57139    0.25747    0.15047    1.000
    N3128    N        0.53611    0.19859    0.15511    1.000
    Si3129   Si       0.53145    0.24137    0.15373    1.000
    N3130    N        0.53067    0.04993    0.31641    1.000
    Si3131   Si       0.56684    0.06071    0.33728    1.000
    Si3132   Si       0.53944    0.02998    0.27815    1.000
    N3133    N        0.54037    0.22925    0.26311    1.000
    N3134    N        0.55946    0.19145    0.31753    1.000
    Si3135   Si       0.56667    0.19727    0.27631    1.000
    N3136    N        0.54923    0.16436    0.25652    1.000
    Si3137   Si       0.51757    0.19319    0.33133    1.000
    N3138    N        0.51658    0.23151    0.35190    1.000
    N3139    N        0.55195    0.08738    0.37112    1.000
    N3140    N        0.53361    0.12430    0.48061    1.000
    Si3141   Si       0.56856    0.12561    0.45288    1.000
    N3142    N        0.56943    0.03275    0.48399    1.000
    N3143    N        0.51459    0.07253    0.43717    1.000
    N3144    N        0.52032    0.20210    0.41326    1.000
    N3145    N        0.55121    0.13709    0.41428    1.000
    Si3146   Si       0.54202    0.22812    0.38772    1.000
    N3147    N        0.55968    0.03173    0.54726    1.000
    Si3148   Si       0.53489    0.02331    0.58275    1.000
    Si3149   Si       0.53571    0.03218    0.51129    1.000
    N3150    N        0.54873    0.05295    0.61073    1.000
    Si3151   Si       0.53196    0.09281    0.61253    1.000
    N3152    N        0.53690    0.22048    0.54395    1.000
    N3153    N        0.56320    0.15741    0.55493    1.000
    Si3154   Si       0.57456    0.19991    0.55138    1.000
    Si3155   Si       0.54671    0.22210    0.50210    1.000
    Si3156   Si       0.52252    0.14336    0.56276    1.000
    N3157    N        0.51984    0.15887    0.60373    1.000
    N3158    N        0.56358    0.11307    0.63586    1.000
    Si3159   Si       0.54108    0.04954    0.71915    1.000
    N3160    N        0.55602    0.08729    0.70564    1.000
    Si3161   Si       0.56734    0.12098    0.72963    1.000
    N3162    N        0.57392    0.02448    0.70917    1.000
    Si3163   Si       0.52016    0.17505    0.70824    1.000
    N3164    N        0.52321    0.15401    0.67049    1.000
    Si3165   Si       0.54990    0.15471    0.63580    1.000
    N3166    N        0.54233    0.21023    0.71013    1.000
    N3167    N        0.55128    0.24887    0.62552    1.000
    N3168    N        0.53643    0.14985    0.73966    1.000
    Si3169   Si       0.55915    0.05065    0.79622    1.000
    N3170    N        0.54892    0.07714    0.82915    1.000
    N3171    N        0.53297    0.05539    0.76193    1.000
    N3172    N        0.55520    0.00891    0.80843    1.000
    Si3173   Si       0.54203    0.22796    0.78898    1.000
    N3174    N        0.54073    0.22827    0.83371    1.000
    Si3175   Si       0.54261    0.18334    0.83302    1.000
    N3176    N        0.56798    0.19045    0.79234    1.000
    N3177    N        0.52957    0.14212    0.80727    1.000
    Si3178   Si       0.51911    0.24829    0.86618    1.000
    Si3179   Si       0.53730    0.07594    0.87519    1.000
    N3180    N        0.56721    0.04211    0.87696    1.000
    Si3181   Si       0.52738    0.03117    0.93809    1.000
    N3182    N        0.55181    0.10105    0.97335    1.000
    N3183    N        0.56418    0.11249    0.90300    1.000
    Si3184   Si       0.53393    0.10380    0.93489    1.000
    N3185    N        0.56965    0.02914    0.94992    1.000
    N3186    N        0.52093    0.06633    0.91617    1.000
    N3187    N        0.52129    0.16091    0.98296    1.000
    N3188    N        0.53451    0.24977    0.90946    1.000
    Si3189   Si       0.55800    0.15279    0.88638    1.000
    N3190    N        0.52962    0.23413    0.97974    1.000
    N3191    N        0.52360    0.17674    0.87230    1.000
    Si3192   Si       0.54101    0.19628    0.99528    1.000
    Si3193   Si       0.54465    0.33801    0.09360    1.000
    N3194    N        0.54571    0.30099    0.01477    1.000
    N3195    N        0.54256    0.37609    0.07006    1.000
    Si3196   Si       0.53119    0.48552    0.06475    1.000
    N3197    N        0.56778    0.47233    0.04132    1.000
    N3198    N        0.55397    0.41000    0.01474    1.000
    Si3199   Si       0.55767    0.45191    0.00465    1.000
    N3200    N        0.52763    0.44614    0.08884    1.000
    N3201    N        0.52179    0.50685    0.10174    1.000
    Si3202   Si       0.57566    0.34700    0.15898    1.000
    N3203    N        0.54181    0.35258    0.13501    1.000
    N3204    N        0.53345    0.35380    0.23072    1.000
    N3205    N        0.56445    0.31112    0.18233    1.000
    Si3206   Si       0.53043    0.31534    0.20747    1.000
    N3207    N        0.52802    0.28958    0.24108    1.000
    Si3208   Si       0.56380    0.38317    0.22588    1.000
    N3209    N        0.54328    0.48249    0.20226    1.000
    N3210    N        0.54105    0.41834    0.21784    1.000
    Si3211   Si       0.53308    0.46045    0.13006    1.000
    Si3212   Si       0.55965    0.44677    0.18450    1.000
    N3213    N        0.53682    0.42376    0.15426    1.000
    N3214    N        0.57274    0.47164    0.14537    1.000
    Si3215   Si       0.54239    0.31433    0.30867    1.000
    N3216    N        0.55597    0.31413    0.35004    1.000
    N3217    N        0.53262    0.35406    0.29798    1.000
    Si3218   Si       0.56091    0.26698    0.25656    1.000
    N3219    N        0.56643    0.37969    0.35911    1.000
    N3220    N        0.57397    0.29511    0.28728    1.000
    Si3221   Si       0.53996    0.38791    0.32549    1.000
    N3222    N        0.55262    0.42692    0.30912    1.000
    N3223    N        0.56284    0.49816    0.32862    1.000
    Si3224   Si       0.57219    0.49680    0.28584    1.000
    N3225    N        0.53438    0.50500    0.26650    1.000
    Si3226   Si       0.52300    0.44761    0.33431    1.000
    Si3227   Si       0.55168    0.33865    0.45566    1.000
    N3228    N        0.55167    0.26894    0.40829    1.000
    N3229    N        0.54309    0.34039    0.41319    1.000
    Si3230   Si       0.53675    0.30466    0.38970    1.000
    N3231    N        0.56382    0.37256    0.48085    1.000
    N3232    N        0.55200    0.26191    0.48239    1.000
    Si3233   Si       0.55636    0.38311    0.40174    1.000
    Si3234   Si       0.55206    0.48347    0.44415    1.000
    N3235    N        0.53150    0.46334    0.37376    1.000
    N3236    N        0.52171    0.40369    0.41556    1.000
    Si3237   Si       0.57294    0.48276    0.37241    1.000
    N3238    N        0.57805    0.46757    0.41600    1.000
    N3239    N        0.54690    0.32090    0.59842    1.000
    N3240    N        0.56628    0.37770    0.55967    1.000
    Si3241   Si       0.52453    0.35206    0.61949    1.000
    Si3242   Si       0.54809    0.38835    0.51985    1.000
    N3243    N        0.54746    0.43168    0.52439    1.000
    N3244    N        0.55411    0.43931    0.59504    1.000
    N3245    N        0.53196    0.49474    0.56440    1.000
    Si3246   Si       0.52994    0.45148    0.55825    1.000
    Si3247   Si       0.57460    0.40089    0.59385    1.000
    N3248    N        0.52679    0.32709    0.65910    1.000
    Si3249   Si       0.54384    0.29362    0.63308    1.000
    Si3250   Si       0.54930    0.33324    0.69546    1.000
    N3251    N        0.56191    0.29591    0.71614    1.000
    N3252    N        0.55201    0.38335    0.62632    1.000
    N3253    N        0.51867    0.34877    0.72315    1.000
    Si3254   Si       0.54359    0.45506    0.63374    1.000
    N3255    N        0.56231    0.49538    0.63351    1.000
    N3256    N        0.56906    0.43721    0.66712    1.000
    Si3257   Si       0.55565    0.39598    0.66709    1.000
    N3258    N        0.56400    0.40700    0.73211    1.000
    Si3259   Si       0.52438    0.39118    0.72760    1.000
    N3260    N        0.55221    0.34510    0.85288    1.000
    Si3261   Si       0.55375    0.28710    0.75795    1.000
    Si3262   Si       0.52246    0.37738    0.85168    1.000
    N3263    N        0.56262    0.32057    0.78267    1.000
    N3264    N        0.51994    0.26666    0.78069    1.000
    N3265    N        0.51520    0.29153    0.86099    1.000
    N3266    N        0.53918    0.45502    0.77740    1.000
    N3267    N        0.53088    0.41019    0.82447    1.000
    Si3268   Si       0.56538    0.44120    0.82230    1.000
    N3269    N        0.57472    0.43416    0.86481    1.000
    Si3270   Si       0.57456    0.43973    0.75881    1.000
    N3271    N        0.56091    0.37260    0.95834    1.000
    Si3272   Si       0.54104    0.31755    0.88598    1.000
    Si3273   Si       0.52656    0.37340    0.92870    1.000
    Si3274   Si       0.55566    0.26255    0.99574    1.000
    Si3275   Si       0.53010    0.38361    0.99025    1.000
    N3276    N        0.54702    0.46325    0.92340    1.000
    N3277    N        0.52070    0.46245    0.98727    1.000
    Si3278   Si       0.53796    0.43840    0.88656    1.000
    N3279    N        0.52678    0.39626    0.89263    1.000
    N3280    N        0.54172    0.53438    0.03480    1.000
    Si3281   Si       0.53373    0.61818    0.07596    1.000
    Si3282   Si       0.53657    0.54481    0.10826    1.000
    Si3283   Si       0.56636    0.62015    0.01048    1.000
    N3284    N        0.52007    0.57698    0.08469    1.000
    Si3285   Si       0.52929    0.55213    0.99710    1.000
    N3286    N        0.57167    0.61941    0.09599    1.000
    N3287    N        0.53848    0.63889    0.03664    1.000
    N3288    N        0.56241    0.70862    0.03927    1.000
    Si3289   Si       0.53037    0.68153    0.03078    1.000
    N3290    N        0.53957    0.74831    0.08841    1.000
    Si3291   Si       0.57205    0.72127    0.08147    1.000
    N3292    N        0.57115    0.68494    0.10579    1.000
    Si3293   Si       0.57732    0.55002    0.17009    1.000
    Si3294   Si       0.53967    0.52058    0.22495    1.000
    N3295    N        0.53610    0.54428    0.15206    1.000
    N3296    N        0.57222    0.54606    0.21369    1.000
    N3297    N        0.52341    0.63146    0.23407    1.000
    Si3298   Si       0.53647    0.66970    0.12934    1.000
    N3299    N        0.56575    0.68920    0.24026    1.000
    Si3300   Si       0.56274    0.64507    0.24231    1.000
    N3301    N        0.54391    0.64674    0.16445    1.000
    N3302    N        0.54592    0.75260    0.21197    1.000
    Si3303   Si       0.53950    0.53478    0.33896    1.000
    Si3304   Si       0.55579    0.60687    0.31651    1.000
    N3305    N        0.56768    0.56537    0.32525    1.000
    N3306    N        0.57714    0.62845    0.28248    1.000
    N3307    N        0.57038    0.63552    0.34736    1.000
    N3308    N        0.56205    0.70766    0.31956    1.000
    Si3309   Si       0.57160    0.67862    0.34964    1.000
    Si3310   Si       0.57172    0.75332    0.32489    1.000
    N3311    N        0.52610    0.75983    0.32196    1.000
    N3312    N        0.57577    0.75354    0.27490    1.000
    Si3313   Si       0.55011    0.72885    0.24784    1.000
    Si3314   Si       0.52120    0.71816    0.30828    1.000
    Si3315   Si       0.55504    0.54776    0.40588    1.000
    N3316    N        0.56105    0.59026    0.40690    1.000
    N3317    N        0.55472    0.52901    0.44481    1.000
    Si3318   Si       0.52304    0.61044    0.42017    1.000
    N3319    N        0.52426    0.53619    0.37873    1.000
    Si3320   Si       0.52970    0.62967    0.49216    1.000
    N3321    N        0.53692    0.63969    0.44855    1.000
    Si3322   Si       0.54783    0.72454    0.40546    1.000
    Si3323   Si       0.55905    0.66689    0.42276    1.000
    N3324    N        0.54437    0.68422    0.38495    1.000
    N3325    N        0.56834    0.70574    0.44156    1.000
    N3326    N        0.55523    0.53569    0.51270    1.000
    Si3327   Si       0.55429    0.58112    0.59041    1.000
    Si3328   Si       0.56579    0.51619    0.55033    1.000
    N3329    N        0.55852    0.63047    0.52512    1.000
    N3330    N        0.52061    0.60707    0.57214    1.000
    N3331    N        0.57965    0.55169    0.57054    1.000
    N3332    N        0.57711    0.61825    0.59392    1.000
    Si3333   Si       0.54924    0.63910    0.56619    1.000
    Si3334   Si       0.52684    0.69731    0.52482    1.000
    N3335    N        0.56571    0.71098    0.51180    1.000
    Si3336   Si       0.55396    0.71142    0.59430    1.000
    N3337    N        0.53823    0.68175    0.56584    1.000
    N3338    N        0.55507    0.74776    0.56948    1.000
    N3339    N        0.53879    0.56606    0.62689    1.000
    N3340    N        0.55507    0.62082    0.71404    1.000
    Si3341   Si       0.52897    0.52439    0.63461    1.000
    N3342    N        0.55210    0.55064    0.73954    1.000
    Si3343   Si       0.53332    0.59593    0.74388    1.000
    N3344    N        0.52138    0.53223    0.67637    1.000
    N3345    N        0.52729    0.71742    0.62770    1.000
    Si3346   Si       0.54030    0.69486    0.74006    1.000
    Si3347   Si       0.53352    0.72113    0.66963    1.000
    N3348    N        0.53124    0.68612    0.69561    1.000
    Si3349   Si       0.54463    0.64794    0.67947    1.000
    N3350    N        0.53822    0.59257    0.84329    1.000
    Si3351   Si       0.56429    0.51960    0.82501    1.000
    N3352    N        0.56892    0.53220    0.86615    1.000
    N3353    N        0.57105    0.60497    0.77218    1.000
    N3354    N        0.52341    0.51137    0.81050    1.000
    Si3355   Si       0.57742    0.59712    0.81412    1.000
    Si3356   Si       0.53329    0.63765    0.85163    1.000
    N3357    N        0.54607    0.71495    0.80976    1.000
    Si3358   Si       0.55249    0.67429    0.79541    1.000
    Si3359   Si       0.55990    0.74956    0.78627    1.000
    N3360    N        0.56798    0.64774    0.82487    1.000
    N3361    N        0.57515    0.67419    0.75643    1.000
    N3362    N        0.54753    0.73840    0.74615    1.000
    Si3363   Si       0.54354    0.56479    0.87912    1.000
    Si3364   Si       0.53020    0.59713    0.94528    1.000
    N3365    N        0.55826    0.59025    0.91135    1.000
    N3366    N        0.54867    0.58955    0.98500    1.000
    N3367    N        0.52536    0.53000    0.96152    1.000
    N3368    N        0.53544    0.75043    0.86940    1.000
    Si3369   Si       0.57317    0.68432    0.89190    1.000
    N3370    N        0.53198    0.75105    0.95598    1.000
    N3371    N        0.52881    0.64212    0.94188    1.000
    N3372    N        0.52037    0.68845    0.99059    1.000
    Si3373   Si       0.56944    0.73643    0.94561    1.000
    N3374    N        0.56586    0.69619    0.93241    1.000
    Si3375   Si       0.54962    0.67118    0.96397    1.000
    N3376    N        0.53523    0.67037    0.87811    1.000
    Si3377   Si       0.57606    0.75805    0.87800    1.000
    Si3378   Si       0.54389    0.83094    0.08989    1.000
    N3379    N        0.56697    0.77842    0.02479    1.000
    N3380    N        0.53975    0.87460    0.08543    1.000
    Si3381   Si       0.53270    0.76935    0.04998    1.000
    Si3382   Si       0.55788    0.87861    0.01731    1.000
    Si3383   Si       0.57336    0.81476    0.00073    1.000
    N3384    N        0.56702    0.91645    0.03770    1.000
    N3385    N        0.55669    0.98618    0.00484    1.000
    Si3386   Si       0.57358    0.90579    0.08033    1.000
    N3387    N        0.57862    0.94323    0.10321    1.000
    Si3388   Si       0.53414    0.87292    0.13333    1.000
    Si3389   Si       0.56353    0.79415    0.20245    1.000
    N3390    N        0.53116    0.87545    0.17768    1.000
    N3391    N        0.52431    0.80979    0.19739    1.000
    N3392    N        0.52156    0.83180    0.12705    1.000
    N3393    N        0.53242    0.85360    0.24582    1.000
    Si3394   Si       0.55302    0.95621    0.13649    1.000
    N3395    N        0.55460    0.97198    0.22445    1.000
    N3396    N        0.57612    0.88737    0.13701    1.000
    N3397    N        0.54057    0.93665    0.17433    1.000
    Si3398   Si       0.57048    0.90305    0.18085    1.000
    N3399    N        0.57323    0.99098    0.15353    1.000
    Si3400   Si       0.54682    0.83071    0.34708    1.000
    N3401    N        0.53667    0.85449    0.31189    1.000
    N3402    N        0.57451    0.79808    0.34230    1.000
    N3403    N        0.54438    0.98709    0.29078    1.000
    Si3404   Si       0.54270    0.95353    0.26333    1.000
    Si3405   Si       0.54485    0.89704    0.31225    1.000
    N3406    N        0.56133    0.91863    0.27832    1.000
    N3407    N        0.55675    0.96665    0.35974    1.000
    Si3408   Si       0.57406    0.98452    0.32305    1.000
    N3409    N        0.56466    0.83401    0.48545    1.000
    N3410    N        0.52649    0.77477    0.47600    1.000
    N3411    N        0.55907    0.80595    0.41741    1.000
    N3412    N        0.53377    0.87143    0.44031    1.000
    Si3413   Si       0.56582    0.84998    0.41903    1.000
    Si3414   Si       0.52354    0.78798    0.43281    1.000
    Si3415   Si       0.53058    0.86284    0.48345    1.000
    N3416    N        0.56953    0.85308    0.37681    1.000
    N3417    N        0.56341    0.97319    0.43142    1.000
    Si3418   Si       0.52343    0.95877    0.43364    1.000
    Si3419   Si       0.54186    0.82912    0.56483    1.000
    N3420    N        0.53716    0.82098    0.60749    1.000
    Si3421   Si       0.55136    0.79627    0.50262    1.000
    N3422    N        0.52416    0.79932    0.53966    1.000
    N3423    N        0.53793    0.88913    0.51805    1.000
    N3424    N        0.54009    0.98277    0.59439    1.000
    Si3425   Si       0.53264    0.96246    0.50608    1.000
    N3426    N        0.57419    0.96886    0.50093    1.000
    N3427    N        0.57775    0.87377    0.61876    1.000
    N3428    N        0.53991    0.82046    0.72956    1.000
    Si3429   Si       0.53944    0.77511    0.72022    1.000
    N3430    N        0.57048    0.84331    0.67141    1.000
    Si3431   Si       0.57319    0.83129    0.62941    1.000
    N3432    N        0.51872    0.75772    0.68706    1.000
    N3433    N        0.54488    0.91730    0.66138    1.000
    N3434    N        0.55863    0.94012    0.73835    1.000
    Si3435   Si       0.57078    0.99989    0.67523    1.000
    Si3436   Si       0.57389    0.88532    0.65983    1.000
    N3437    N        0.52854    0.98498    0.68090    1.000
    Si3438   Si       0.54049    0.94457    0.69605    1.000
    Si3439   Si       0.53351    0.81723    0.80832    1.000
    N3440    N        0.53237    0.77429    0.80624    1.000
    N3441    N        0.52757    0.83176    0.84889    1.000
    N3442    N        0.57614    0.82650    0.79781    1.000
    N3443    N        0.54903    0.88464    0.78265    1.000
    Si3444   Si       0.55335    0.92788    0.77869    1.000
    N3445    N        0.55879    0.90109    0.85886    1.000
    N3446    N        0.56042    0.97192    0.86491    1.000
    Si3447   Si       0.51837    0.98863    0.81223    1.000
    Si3448   Si       0.53712    0.86105    0.95220    1.000
    N3449    N        0.54415    0.82281    0.96991    1.000
    N3450    N        0.55270    0.85774    0.91057    1.000
    N3451    N        0.56474    0.88516    0.97581    1.000
    Si3452   Si       0.52099    0.83591    0.88965    1.000
    N3453    N        0.51409    0.99883    0.91327    1.000
    Si3454   Si       0.51791    0.96989    0.88065    1.000
    N3455    N        0.61379    0.10116    0.07054    1.000
    N3456    N        0.62304    0.09995    0.00685    1.000
    Si3457   Si       0.58062    0.09202    0.00524    1.000
    N3458    N        0.58166    0.05047    0.01932    1.000
    Si3459   Si       0.63665    0.07541    0.04427    1.000
    Si3460   Si       0.61159    0.18043    0.09499    1.000
    N3461    N        0.61123    0.18981    0.05180    1.000
    Si3462   Si       0.60057    0.23978    0.12261    1.000
    N3463    N        0.61509    0.05664    0.20110    1.000
    N3464    N        0.63160    0.11306    0.15305    1.000
    Si3465   Si       0.60908    0.07708    0.16306    1.000
    N3466    N        0.61035    0.04877    0.13089    1.000
    Si3467   Si       0.60745    0.02606    0.23165    1.000
    Si3468   Si       0.62136    0.23954    0.24342    1.000
    N3469    N        0.60389    0.14855    0.21248    1.000
    N3470    N        0.63021    0.20601    0.12516    1.000
    N3471    N        0.58785    0.25786    0.22403    1.000
    Si3472   Si       0.61675    0.11649    0.32519    1.000
    Si3473   Si       0.58373    0.08240    0.26885    1.000
    N3474    N        0.58508    0.08794    0.31088    1.000
    N3475    N        0.62399    0.09274    0.25682    1.000
    N3476    N        0.59027    0.02384    0.33825    1.000
    N3477    N        0.57725    0.03825    0.25841    1.000
    Si3478   Si       0.62004    0.01582    0.36759    1.000
    N3479    N        0.60650    0.20399    0.26332    1.000
    Si3480   Si       0.59106    0.18720    0.34542    1.000
    N3481    N        0.59613    0.14393    0.35278    1.000
    N3482    N        0.62829    0.14348    0.29363    1.000
    N3483    N        0.62756    0.20270    0.32593    1.000
    Si3484   Si       0.61545    0.07638    0.42637    1.000
    N3485    N        0.61404    0.11544    0.40850    1.000
    N3486    N        0.62084    0.05171    0.39135    1.000
    N3487    N        0.58751    0.08631    0.45866    1.000
    Si3488   Si       0.57609    0.12091    0.38427    1.000
    Si3489   Si       0.61337    0.17595    0.49608    1.000
    Si3490   Si       0.63392    0.23823    0.48140    1.000
    N3491    N        0.59921    0.15531    0.46210    1.000
    N3492    N        0.58253    0.21515    0.37889    1.000
    Si3493   Si       0.61905    0.22357    0.40582    1.000
    N3494    N        0.60791    0.24101    0.44431    1.000
    Si3495   Si       0.62974    0.15105    0.42941    1.000
    N3496    N        0.61512    0.05055    0.59005    1.000
    N3497    N        0.62476    0.04351    0.51888    1.000
    Si3498   Si       0.60235    0.02875    0.55307    1.000
    N3499    N        0.58398    0.09678    0.52736    1.000
    Si3500   Si       0.59751    0.12980    0.54901    1.000
    Si3501   Si       0.59317    0.06601    0.49701    1.000
    N3502    N        0.61966    0.13606    0.58684    1.000
    N3503    N        0.61252    0.20445    0.57420    1.000
    N3504    N        0.62796    0.14661    0.52404    1.000
    N3505    N        0.58501    0.20372    0.50907    1.000
    Si3506   Si       0.61598    0.17542    0.60573    1.000
    Si3507   Si       0.63207    0.23870    0.59282    1.000
    Si3508   Si       0.58988    0.04504    0.62404    1.000
    N3509    N        0.62619    0.06753    0.73537    1.000
    N3510    N        0.60833    0.06867    0.65606    1.000
    Si3511   Si       0.61341    0.02657    0.73113    1.000
    Si3512   Si       0.58253    0.09881    0.67352    1.000
    N3513    N        0.59508    0.13502    0.69740    1.000
    N3514    N        0.58103    0.18308    0.63045    1.000
    Si3515   Si       0.58014    0.22376    0.72527    1.000
    Si3516   Si       0.62801    0.16085    0.71139    1.000
    N3517    N        0.62365    0.23126    0.63389    1.000
    Si3518   Si       0.58385    0.22611    0.64515    1.000
    N3519    N        0.59662    0.24100    0.68813    1.000
    N3520    N        0.60773    0.19247    0.73526    1.000
    Si3521   Si       0.61999    0.08567    0.77251    1.000
    N3522    N        0.60314    0.05346    0.79476    1.000
    N3523    N        0.58512    0.11372    0.76959    1.000
    Si3524   Si       0.60929    0.19484    0.78008    1.000
    Si3525   Si       0.61996    0.15873    0.84558    1.000
    N3526    N        0.62282    0.15965    0.80052    1.000
    N3527    N        0.63237    0.22791    0.79720    1.000
    N3528    N        0.57777    0.24876    0.76324    1.000
    N3529    N        0.57626    0.15446    0.84593    1.000
    Si3530   Si       0.57522    0.14469    0.80021    1.000
    N3531    N        0.61990    0.07152    0.91553    1.000
    Si3532   Si       0.60585    0.11117    0.91197    1.000
    Si3533   Si       0.59100    0.03960    0.91412    1.000
    Si3534   Si       0.58434    0.01848    0.99035    1.000
    N3535    N        0.62652    0.13296    0.88178    1.000
    N3536    N        0.61671    0.13386    0.94814    1.000
    Si3537   Si       0.60407    0.17712    0.94897    1.000
    N3538    N        0.58236    0.18077    0.91121    1.000
    Si3539   Si       0.61634    0.20727    0.89651    1.000
    N3540    N        0.58067    0.18893    0.98249    1.000
    N3541    N        0.60440    0.24687    0.89147    1.000
    Si3542   Si       0.61516    0.31310    0.10133    1.000
    N3543    N        0.61711    0.29592    0.02067    1.000
    N3544    N        0.62451    0.27147    0.10391    1.000
    N3545    N        0.59948    0.36041    0.01751    1.000
    Si3546   Si       0.63125    0.33585    0.03248    1.000
    Si3547   Si       0.62630    0.38425    0.10912    1.000
    N3548    N        0.57863    0.31697    0.07831    1.000
    Si3549   Si       0.57887    0.29187    0.04315    1.000
    N3550    N        0.60787    0.39762    0.07281    1.000
    Si3551   Si       0.60733    0.48316    0.05155    1.000
    N3552    N        0.61332    0.48459    0.09608    1.000
    Si3553   Si       0.57702    0.38758    0.04685    1.000
    N3554    N        0.63762    0.46022    0.03179    1.000
    N3555    N        0.60866    0.34704    0.12909    1.000
    Si3556   Si       0.58937    0.27581    0.18533    1.000
    N3557    N        0.58546    0.37670    0.18738    1.000
    N3558    N        0.63140    0.28234    0.17992    1.000
    Si3559   Si       0.61161    0.45852    0.13313    1.000
    N3560    N        0.60193    0.44134    0.20038    1.000
    N3561    N        0.62663    0.50461    0.21759    1.000
    N3562    N        0.61569    0.41602    0.13492    1.000
    Si3563   Si       0.62063    0.46484    0.23253    1.000
    Si3564   Si       0.61243    0.40572    0.17681    1.000
    Si3565   Si       0.61582    0.30069    0.29938    1.000
    N3566    N        0.61191    0.34252    0.31288    1.000
    N3567    N        0.61916    0.27919    0.33747    1.000
    Si3568   Si       0.62327    0.37368    0.28398    1.000
    Si3569   Si       0.58936    0.34398    0.35245    1.000
    N3570    N        0.63197    0.26984    0.27236    1.000
    N3571    N        0.59054    0.38943    0.25839    1.000
    N3572    N        0.59250    0.46269    0.26501    1.000
    N3573    N        0.62082    0.40971    0.30807    1.000
    Si3574   Si       0.58773    0.42455    0.28441    1.000
    N3575    N        0.60575    0.45179    0.36477    1.000
    Si3576   Si       0.63373    0.43915    0.33591    1.000
    N3577    N        0.63388    0.35732    0.45738    1.000
    N3578    N        0.61489    0.33219    0.38687    1.000
    Si3579   Si       0.61779    0.32770    0.43108    1.000
    N3580    N        0.58584    0.31063    0.45679    1.000
    Si3581   Si       0.57429    0.27056    0.44396    1.000
    N3582    N        0.61120    0.42073    0.49216    1.000
    N3583    N        0.59006    0.40020    0.42327    1.000
    Si3584   Si       0.60171    0.38850    0.46359    1.000
    Si3585   Si       0.60815    0.43852    0.40847    1.000
    N3586    N        0.57449    0.47955    0.48012    1.000
    N3587    N        0.61003    0.34082    0.59799    1.000
    N3588    N        0.61552    0.27787    0.58362    1.000
    Si3589   Si       0.62153    0.29260    0.54427    1.000
    N3590    N        0.61584    0.26939    0.50849    1.000
    N3591    N        0.58416    0.31552    0.53500    1.000
    Si3592   Si       0.61368    0.30339    0.61958    1.000
    Si3593   Si       0.57986    0.29565    0.49759    1.000
    Si3594   Si       0.57647    0.33833    0.57071    1.000
    N3595    N        0.61592    0.40803    0.60424    1.000
    N3596    N        0.59294    0.48452    0.53889    1.000
    N3597    N        0.62740    0.47324    0.60015    1.000
    Si3598   Si       0.58470    0.45030    0.51262    1.000
    Si3599   Si       0.63581    0.48458    0.55102    1.000
    Si3600   Si       0.59662    0.28484    0.69187    1.000
    N3601    N        0.58456    0.29906    0.65210    1.000
    N3602    N        0.63210    0.30700    0.70242    1.000
    N3603    N        0.57706    0.36482    0.68664    1.000
    Si3604   Si       0.59820    0.38383    0.71850    1.000
    N3605    N        0.60140    0.46390    0.73605    1.000
    N3606    N        0.62187    0.48134    0.67089    1.000
    Si3607   Si       0.60178    0.44967    0.69341    1.000
    Si3608   Si       0.60758    0.49690    0.63283    1.000
    N3609    N        0.62585    0.41150    0.70068    1.000
    N3610    N        0.61366    0.35550    0.81847    1.000
    N3611    N        0.59710    0.28682    0.83014    1.000
    Si3612   Si       0.61050    0.26704    0.79127    1.000
    N3613    N        0.61552    0.36192    0.74938    1.000
    Si3614   Si       0.57966    0.32678    0.82066    1.000
    Si3615   Si       0.61936    0.28023    0.86597    1.000
    Si3616   Si       0.61511    0.38408    0.78578    1.000
    N3617    N        0.59075    0.41848    0.79383    1.000
    Si3618   Si       0.62515    0.47381    0.83510    1.000
    N3619    N        0.58460    0.48084    0.82159    1.000
    Si3620   Si       0.63421    0.48846    0.75745    1.000
    N3621    N        0.63154    0.50703    0.86185    1.000
    N3622    N        0.57941    0.30580    0.90397    1.000
    N3623    N        0.62397    0.34496    0.95024    1.000
    Si3624   Si       0.61265    0.33668    0.90916    1.000
    Si3625   Si       0.60157    0.37434    0.97659    1.000
    N3626    N        0.61614    0.37563    0.88455    1.000
    N3627    N        0.58860    0.26412    0.96208    1.000
    Si3628   Si       0.62546    0.26953    0.98762    1.000
    Si3629   Si       0.57571    0.26489    0.91994    1.000
    N3630    N        0.59178    0.46148    0.97845    1.000
    Si3631   Si       0.61215    0.41830    0.88107    1.000
    Si3632   Si       0.63197    0.44825    0.98803    1.000
    N3633    N        0.63293    0.40534    0.98435    1.000
    N3634    N        0.61472    0.43644    0.91855    1.000
    Si3635   Si       0.58856    0.46403    0.93603    1.000
    N3636    N        0.60489    0.50228    0.92412    1.000
    N3637    N        0.61221    0.52762    0.04180    1.000
    Si3638   Si       0.62647    0.60170    0.05409    1.000
    N3639    N        0.58673    0.58986    0.03806    1.000
    Si3640   Si       0.59277    0.58782    0.11576    1.000
    Si3641   Si       0.61478    0.52513    0.11320    1.000
    N3642    N        0.57944    0.54819    0.09790    1.000
    N3643    N        0.63122    0.58437    0.09356    1.000
    Si3644   Si       0.57712    0.55002    0.05420    1.000
    Si3645   Si       0.59574    0.74454    0.02577    1.000
    Si3646   Si       0.59880    0.65259    0.09801    1.000
    N3647    N        0.60668    0.74500    0.07042    1.000
    N3648    N        0.62571    0.64377    0.06186    1.000
    N3649    N        0.63323    0.70108    0.02115    1.000
    Si3650   Si       0.58392    0.63115    0.16753    1.000
    N3651    N        0.61180    0.52827    0.15598    1.000
    Si3652   Si       0.61025    0.54008    0.23599    1.000
    N3653    N        0.58373    0.58828    0.15722    1.000
    Si3654   Si       0.63372    0.61798    0.21869    1.000
    N3655    N        0.59395    0.63255    0.21037    1.000
    N3656    N        0.61495    0.64303    0.13754    1.000
    N3657    N        0.60016    0.52981    0.27704    1.000
    Si3658   Si       0.60730    0.54960    0.31254    1.000
    Si3659   Si       0.61988    0.62317    0.29102    1.000
    N3660    N        0.63117    0.58411    0.30419    1.000
    N3661    N        0.63529    0.53241    0.34196    1.000
    N3662    N        0.61104    0.69553    0.36085    1.000
    N3663    N        0.61931    0.75161    0.32979    1.000
    Si3664   Si       0.61894    0.73679    0.37427    1.000
    N3665    N        0.62063    0.59144    0.37413    1.000
    N3666    N        0.58654    0.52683    0.38575    1.000
    Si3667   Si       0.58570    0.61544    0.38271    1.000
    Si3668   Si       0.62284    0.54808    0.38079    1.000
    N3669    N        0.61662    0.54553    0.48592    1.000
    Si3670   Si       0.58059    0.52339    0.48085    1.000
    Si3671   Si       0.58968    0.69789    0.47796    1.000
    Si3672   Si       0.62621    0.64249    0.44524    1.000
    N3673    N        0.59569    0.64483    0.41488    1.000
    N3674    N        0.62818    0.71777    0.47720    1.000
    N3675    N        0.57783    0.74571    0.38250    1.000
    N3676    N        0.60406    0.65619    0.47976    1.000
    Si3677   Si       0.62203    0.55534    0.58571    1.000
    N3678    N        0.62308    0.60575    0.52960    1.000
    Si3679   Si       0.60000    0.63885    0.51771    1.000
    N3680    N        0.61502    0.66314    0.54914    1.000
    N3681    N        0.59474    0.70530    0.60641    1.000
    N3682    N        0.62199    0.72838    0.54777    1.000
    Si3683   Si       0.62673    0.69551    0.57781    1.000
    Si3684   Si       0.58364    0.74363    0.53760    1.000
    N3685    N        0.63291    0.65139    0.60905    1.000
    N3686    N        0.61728    0.53908    0.62713    1.000
    N3687    N        0.61650    0.58697    0.73278    1.000
    N3688    N        0.62323    0.60167    0.65807    1.000
    Si3689   Si       0.60283    0.62605    0.62843    1.000
    Si3690   Si       0.63409    0.61164    0.70016    1.000
    Si3691   Si       0.58892    0.62913    0.74180    1.000
    N3692    N        0.61908    0.72694    0.72491    1.000
    Si3693   Si       0.59948    0.69564    0.64820    1.000
    Si3694   Si       0.60607    0.75037    0.69234    1.000
    N3695    N        0.62512    0.64901    0.72180    1.000
    N3696    N        0.58134    0.65765    0.65396    1.000
    Si3697   Si       0.61714    0.68645    0.74167    1.000
    N3698    N        0.57841    0.72719    0.66949    1.000
    N3699    N        0.61909    0.60670    0.82918    1.000
    Si3700   Si       0.58930    0.56086    0.75948    1.000
    N3701    N        0.62074    0.52813    0.75339    1.000
    N3702    N        0.58304    0.55172    0.80191    1.000
    Si3703   Si       0.60788    0.64605    0.84459    1.000
    Si3704   Si       0.63187    0.74458    0.76286    1.000
    N3705    N        0.63559    0.67572    0.83898    1.000
    N3706    N        0.61903    0.56701    0.90389    1.000
    N3707    N        0.62602    0.61766    0.94109    1.000
    Si3708   Si       0.60573    0.52681    0.88882    1.000
    Si3709   Si       0.59852    0.60604    0.90848    1.000
    N3710    N        0.63087    0.54466    0.96954    1.000
    N3711    N        0.59406    0.64494    0.88655    1.000
    N3712    N        0.58311    0.65635    0.98875    1.000
    Si3713   Si       0.61065    0.69069    0.98644    1.000
    N3714    N        0.59690    0.71857    0.87478    1.000
    N3715    N        0.59327    0.73288    0.98132    1.000
    Si3716   Si       0.60722    0.83851    0.06504    1.000
    N3717    N        0.58446    0.81885    0.09852    1.000
    N3718    N        0.60953    0.87802    0.08075    1.000
    Si3719   Si       0.63686    0.77372    0.08077    1.000
    N3720    N        0.58095    0.84425    0.03058    1.000
    N3721    N        0.63853    0.76517    0.01717    1.000
    Si3722   Si       0.60191    0.97781    0.08801    1.000
    N3723    N        0.60939    0.97060    0.04597    1.000
    Si3724   Si       0.58244    0.95146    0.01828    1.000
    N3725    N        0.63380    0.77582    0.12372    1.000
    Si3726   Si       0.61676    0.87645    0.12350    1.000
    N3727    N        0.62822    0.84184    0.14778    1.000
    Si3728   Si       0.60601    0.80749    0.13521    1.000
    N3729    N        0.58556    0.81140    0.23425    1.000
    N3730    N        0.58853    0.88162    0.21366    1.000
    N3731    N        0.58583    0.79110    0.16815    1.000
    Si3732   Si       0.57708    0.85391    0.24553    1.000
    Si3733   Si       0.58167    0.97300    0.19235    1.000
    Si3734   Si       0.63402    0.94429    0.14513    1.000
    Si3735   Si       0.62903    0.88848    0.22946    1.000
    N3736    N        0.60188    0.93749    0.17434    1.000
    N3737    N        0.61742    0.98934    0.21196    1.000
    Si3738   Si       0.62056    0.79822    0.33554    1.000
    Si3739   Si       0.60630    0.78138    0.25926    1.000
    N3740    N        0.61122    0.87404    0.26857    1.000
    N3741    N        0.62360    0.80585    0.29020    1.000
    N3742    N        0.63366    0.84412    0.33705    1.000
    Si3743   Si       0.60165    0.87950    0.36656    1.000
    N3744    N        0.58785    0.89237    0.32714    1.000
    Si3745   Si       0.60522    0.91399    0.29408    1.000
    N3746    N        0.60502    0.95639    0.31360    1.000
    N3747    N        0.62570    0.78601    0.38154    1.000
    N3748    N        0.60295    0.86227    0.43807    1.000
    Si3749   Si       0.60448    0.85043    0.47965    1.000
    Si3750   Si       0.58142    0.78878    0.38642    1.000
    N3751    N        0.59040    0.91425    0.39477    1.000
    Si3752   Si       0.58143    0.99457    0.46595    1.000
    N3753    N        0.61788    0.97865    0.39005    1.000
    N3754    N        0.63059    0.93422    0.44389    1.000
    Si3755   Si       0.62032    0.89813    0.42123    1.000
    Si3756   Si       0.57972    0.95537    0.39473    1.000
    N3757    N        0.62327    0.00134    0.45721    1.000
    Si3758   Si       0.61608    0.83845    0.57913    1.000
    N3759    N        0.59239    0.78335    0.51860    1.000
    N3760    N        0.57993    0.84904    0.55463    1.000
    N3761    N        0.63367    0.87816    0.58555    1.000
    Si3762   Si       0.63338    0.79985    0.52182    1.000
    N3763    N        0.60716    0.81075    0.61429    1.000
    N3764    N        0.60399    0.98544    0.56539    1.000
    Si3765   Si       0.60011    0.95555    0.53599    1.000
    Si3766   Si       0.59926    0.90413    0.59558    1.000
    N3767    N        0.58475    0.92126    0.55658    1.000
    Si3768   Si       0.58404    0.97455    0.60318    1.000
    N3769    N        0.60461    0.88917    0.49841    1.000
    Si3770   Si       0.57830    0.88704    0.53146    1.000
    N3771    N        0.59990    0.85631    0.73615    1.000
    N3772    N        0.58169    0.78325    0.70685    1.000
    Si3773   Si       0.57724    0.82668    0.71129    1.000
    N3774    N        0.60199    0.93976    0.62179    1.000
    Si3775   Si       0.62545    0.88556    0.71809    1.000
    N3776    N        0.58711    0.96139    0.68845    1.000
    N3777    N        0.58809    0.00521    0.63559    1.000
    N3778    N        0.62381    0.92187    0.74113    1.000
    N3779    N        0.60875    0.89912    0.67964    1.000
    Si3780   Si       0.59936    0.95484    0.73108    1.000
    Si3781   Si       0.61429    0.93941    0.66333    1.000
    Si3782   Si       0.60358    0.79612    0.81360    1.000
    N3783    N        0.59396    0.78843    0.85512    1.000
    Si3784   Si       0.58616    0.86274    0.77639    1.000
    N3785    N        0.61107    0.85330    0.86522    1.000
    N3786    N        0.60074    0.75883    0.79121    1.000
    N3787    N        0.62144    0.88260    0.79869    1.000
    N3788    N        0.61777    0.00092    0.83076    1.000
    N3789    N        0.62115    0.93522    0.86092    1.000
    Si3790   Si       0.59253    0.98848    0.79793    1.000
    N3791    N        0.60631    0.99020    0.75666    1.000
    N3792    N        0.58303    0.94549    0.80548    1.000
    Si3793   Si       0.57988    0.93521    0.84686    1.000
    Si3794   Si       0.58580    0.00589    0.86116    1.000
    N3795    N        0.58557    0.76524    0.91897    1.000
    Si3796   Si       0.62213    0.81170    0.87967    1.000
    Si3797   Si       0.58309    0.87839    0.88796    1.000
    Si3798   Si       0.62438    0.76697    0.97702    1.000
    N3799    N        0.60987    0.80758    0.97925    1.000
    N3800    N        0.60149    0.90715    0.91753    1.000
    N3801    N        0.60350    0.93770    0.98290    1.000
    Si3802   Si       0.60122    0.90051    0.96052    1.000
    N3803    N        0.62493    0.00179    0.98996    1.000
    Si3804   Si       0.63511    0.92844    0.90243    1.000
    N3805    N        0.61562    0.00977    0.89534    1.000
    N3806    N        0.67922    0.07367    0.03667    1.000
    N3807    N        0.66630    0.08520    0.10299    1.000
    Si3808   Si       0.64941    0.04521    0.10781    1.000
    N3809    N        0.64035    0.03197    0.06477    1.000
    Si3810   Si       0.63371    0.11227    0.10803    1.000
    N3811    N        0.67589    0.20041    0.05407    1.000
    Si3812   Si       0.68239    0.16758    0.08066    1.000
    N3813    N        0.64516    0.15122    0.09576    1.000
    Si3814   Si       0.64457    0.19692    0.02307    1.000
    N3815    N        0.64901    0.23505    0.00185    1.000
    Si3816   Si       0.64802    0.07379    0.22475    1.000
    N3817    N        0.67926    0.02764    0.13729    1.000
    N3818    N        0.66452    0.11617    0.21752    1.000
    N3819    N        0.68672    0.06265    0.20052    1.000
    Si3820   Si       0.63843    0.13912    0.18818    1.000
    N3821    N        0.67485    0.24474    0.15280    1.000
    Si3822   Si       0.67539    0.19253    0.22170    1.000
    Si3823   Si       0.66719    0.20133    0.14549    1.000
    N3824    N        0.65703    0.23180    0.22061    1.000
    N3825    N        0.65988    0.17634    0.18279    1.000
    N3826    N        0.64929    0.08841    0.33281    1.000
    Si3827   Si       0.68570    0.07929    0.30775    1.000
    N3828    N        0.68836    0.11008    0.27791    1.000
    N3829    N        0.66141    0.02442    0.35561    1.000
    Si3830   Si       0.65033    0.12728    0.25896    1.000
    Si3831   Si       0.67732    0.00948    0.26853    1.000
    N3832    N        0.64769    0.03389    0.25120    1.000
    Si3833   Si       0.65622    0.06647    0.36968    1.000
    N3834    N        0.69752    0.03894    0.29353    1.000
    N3835    N        0.67077    0.17056    0.25960    1.000
    N3836    N        0.67602    0.24702    0.31391    1.000
    Si3837   Si       0.64156    0.24131    0.33765    1.000
    Si3838   Si       0.63741    0.18512    0.28752    1.000
    N3839    N        0.68613    0.02476    0.49112    1.000
    N3840    N        0.68302    0.08977    0.39391    1.000
    Si3841   Si       0.67824    0.09845    0.43633    1.000
    Si3842   Si       0.66166    0.02509    0.45618    1.000
    N3843    N        0.65176    0.06608    0.44960    1.000
    N3844    N        0.63588    0.18499    0.40615    1.000
    N3845    N        0.64518    0.19724    0.48069    1.000
    Si3846   Si       0.68183    0.17490    0.47049    1.000
    N3847    N        0.64725    0.24811    0.38236    1.000
    N3848    N        0.66778    0.13996    0.44613    1.000
    N3849    N        0.67731    0.09377    0.51200    1.000
    N3850    N        0.68047    0.04454    0.55646    1.000
    Si3851   Si       0.66030    0.05434    0.59406    1.000
    Si3852   Si       0.66663    0.05345    0.51827    1.000
    N3853    N        0.67190    0.09396    0.60958    1.000
    Si3854   Si       0.66810    0.13328    0.52526    1.000
    Si3855   Si       0.66453    0.13430    0.59452    1.000
    N3856    N        0.67318    0.24868    0.58442    1.000
    N3857    N        0.68959    0.14519    0.56137    1.000
    N3858    N        0.65743    0.17030    0.62055    1.000
    N3859    N        0.66515    0.03187    0.63193    1.000
    N3860    N        0.67079    0.08153    0.68131    1.000
    Si3861   Si       0.66334    0.08900    0.72407    1.000
    Si3862   Si       0.64539    0.05003    0.66759    1.000
    N3863    N        0.64008    0.01814    0.69759    1.000
    Si3864   Si       0.69480    0.09347    0.64663    1.000
    N3865    N        0.65042    0.13169    0.73359    1.000
    Si3866   Si       0.63821    0.22672    0.67499    1.000
    N3867    N        0.64963    0.18537    0.68324    1.000
    Si3868   Si       0.68367    0.17372    0.65368    1.000
    N3869    N        0.66861    0.25506    0.68254    1.000
    N3870    N        0.65276    0.06118    0.85140    1.000
    N3871    N        0.65358    0.09891    0.79300    1.000
    N3872    N        0.67465    0.02517    0.79597    1.000
    Si3873   Si       0.67378    0.09543    0.83077    1.000
    Si3874   Si       0.63801    0.03665    0.81580    1.000
    N3875    N        0.67881    0.13728    0.84650    1.000
    Si3876   Si       0.65757    0.13963    0.77598    1.000
    Si3877   Si       0.65753    0.22346    0.83528    1.000
    N3878    N        0.69337    0.16088    0.78247    1.000
    N3879    N        0.63612    0.19703    0.86026    1.000
    N3880    N        0.68398    0.09631    0.90150    1.000
    N3881    N        0.68150    0.10478    0.97155    1.000
    N3882    N        0.67855    0.02844    0.91495    1.000
    Si3883   Si       0.65807    0.06259    0.89534    1.000
    Si3884   Si       0.64522    0.12545    0.98014    1.000
    N3885    N        0.63651    0.20332    0.93514    1.000
    Si3886   Si       0.66914    0.13531    0.88776    1.000
    Si3887   Si       0.67079    0.18458    0.95378    1.000
    N3888    N        0.65518    0.16607    0.99243    1.000
    Si3889   Si       0.68845    0.25378    0.98397    1.000
    N3890    N        0.68275    0.15292    0.92514    1.000
    Si3891   Si       0.67996    0.34020    0.09700    1.000
    N3892    N        0.66443    0.34702    0.00530    1.000
    Si3893   Si       0.66642    0.26591    0.11671    1.000
    N3894    N        0.64541    0.33149    0.07277    1.000
    N3895    N        0.67062    0.37958    0.11295    1.000
    N3896    N        0.67779    0.40508    0.04511    1.000
    Si3897   Si       0.67490    0.44748    0.04613    1.000
    N3898    N        0.68196    0.45380    0.08918    1.000
    Si3899   Si       0.67127    0.38893    0.00401    1.000
    N3900    N        0.67563    0.30784    0.12791    1.000
    Si3901   Si       0.66698    0.26195    0.18931    1.000
    N3902    N        0.69668    0.29215    0.19409    1.000
    Si3903   Si       0.64391    0.50854    0.17784    1.000
    Si3904   Si       0.67396    0.48592    0.11911    1.000
    N3905    N        0.64702    0.47390    0.15355    1.000
    N3906    N        0.65178    0.39358    0.18614    1.000
    Si3907   Si       0.68202    0.38822    0.15564    1.000
    Si3908   Si       0.66395    0.40281    0.22866    1.000
    N3909    N        0.65502    0.44121    0.24590    1.000
    N3910    N        0.67604    0.31369    0.29537    1.000
    N3911    N        0.65937    0.37203    0.25903    1.000
    Si3912   Si       0.67558    0.27330    0.28111    1.000
    N3913    N        0.67794    0.30088    0.36482    1.000
    Si3914   Si       0.69380    0.34896    0.27529    1.000
    N3915    N        0.65532    0.46829    0.31307    1.000
    N3916    N        0.66821    0.42038    0.35779    1.000
    Si3917   Si       0.67657    0.45311    0.28022    1.000
    Si3918   Si       0.66652    0.50401    0.33648    1.000
    Si3919   Si       0.63740    0.29413    0.37962    1.000
    N3920    N        0.64712    0.29556    0.42602    1.000
    Si3921   Si       0.67480    0.35561    0.47755    1.000
    Si3922   Si       0.67891    0.28785    0.45427    1.000
    Si3923   Si       0.68720    0.26531    0.38781    1.000
    N3924    N        0.69641    0.31804    0.48167    1.000
    N3925    N        0.67335    0.25585    0.48391    1.000
    Si3926   Si       0.68129    0.44532    0.38991    1.000
    N3927    N        0.67613    0.48730    0.37817    1.000
    Si3928   Si       0.68326    0.41956    0.44596    1.000
    N3929    N        0.67897    0.43797    0.48357    1.000
    Si3930   Si       0.69442    0.47951    0.48501    1.000
    N3931    N        0.65007    0.43566    0.42121    1.000
    N3932    N        0.65759    0.31575    0.55100    1.000
    Si3933   Si       0.67750    0.35293    0.54577    1.000
    Si3934   Si       0.67134    0.29465    0.59057    1.000
    N3935    N        0.67206    0.37905    0.58230    1.000
    N3936    N        0.66594    0.37788    0.51291    1.000
    Si3937   Si       0.63814    0.37007    0.61161    1.000
    Si3938   Si       0.65010    0.41909    0.51094    1.000
    Si3939   Si       0.64730    0.43508    0.59268    1.000
    N3940    N        0.64528    0.44038    0.54875    1.000
    N3941    N        0.66696    0.49416    0.51811    1.000
    N3942    N        0.68809    0.43705    0.60972    1.000
    N3943    N        0.65531    0.30114    0.63287    1.000
    Si3944   Si       0.66626    0.29741    0.67372    1.000
    N3945    N        0.65592    0.37089    0.65113    1.000
    N3946    N        0.69052    0.38117    0.71645    1.000
    Si3947   Si       0.63730    0.32556    0.74263    1.000
    Si3948   Si       0.66205    0.39636    0.68421    1.000
    N3949    N        0.69163    0.42696    0.67808    1.000
    N3950    N        0.69088    0.49093    0.66037    1.000
    N3951    N        0.66973    0.48551    0.72944    1.000
    Si3952   Si       0.65898    0.49718    0.68991    1.000
    N3953    N        0.67942    0.33691    0.75591    1.000
    Si3954   Si       0.67766    0.30590    0.78558    1.000
    Si3955   Si       0.67947    0.29896    0.86237    1.000
    N3956    N        0.65631    0.26365    0.85165    1.000
    N3957    N        0.67728    0.37704    0.85101    1.000
    Si3958   Si       0.63923    0.35629    0.85459    1.000
    N3959    N        0.63653    0.29437    0.77337    1.000
    N3960    N        0.69634    0.31703    0.82485    1.000
    Si3961   Si       0.68774    0.38563    0.76071    1.000
    Si3962   Si       0.66931    0.41302    0.82733    1.000
    N3963    N        0.65231    0.48304    0.79906    1.000
    N3964    N        0.65675    0.40043    0.78873    1.000
    N3965    N        0.63814    0.43461    0.84841    1.000
    N3966    N        0.66137    0.28595    0.96718    1.000
    Si3967   Si       0.66189    0.32939    0.96584    1.000
    N3968    N        0.64106    0.31788    0.87849    1.000
    Si3969   Si       0.69200    0.49207    0.98986    1.000
    N3970    N        0.65777    0.47727    0.96820    1.000
    N3971    N        0.67780    0.52555    0.01330    1.000
    Si3972   Si       0.67126    0.56908    0.10610    1.000
    N3973    N        0.64824    0.58305    0.02439    1.000
    N3974    N        0.65999    0.52788    0.11372    1.000
    Si3975   Si       0.67964    0.60124    0.00287    1.000
    Si3976   Si       0.63832    0.54298    0.01091    1.000
    Si3977   Si       0.66658    0.72827    0.03744    1.000
    Si3978   Si       0.65619    0.66483    0.03857    1.000
    N3979    N        0.68279    0.69331    0.05934    1.000
    N3980    N        0.66594    0.64252    0.00098    1.000
    N3981    N        0.69341    0.74380    0.00631    1.000
    N3982    N        0.67373    0.60011    0.13803    1.000
    N3983    N        0.68187    0.52791    0.18656    1.000
    Si3984   Si       0.67899    0.55752    0.21686    1.000
    N3985    N        0.63795    0.57426    0.22580    1.000
    Si3986   Si       0.69208    0.66717    0.20933    1.000
    N3987    N        0.65952    0.64145    0.19188    1.000
    N3988    N        0.69385    0.74148    0.13308    1.000
    Si3989   Si       0.66289    0.73342    0.22295    1.000
    N3990    N        0.65416    0.72930    0.18176    1.000
    N3991    N        0.67771    0.67266    0.12800    1.000
    N3992    N        0.67238    0.69383    0.23480    1.000
    Si3993   Si       0.68263    0.70551    0.15555    1.000
    Si3994   Si       0.65764    0.63940    0.14804    1.000
    Si3995   Si       0.64843    0.59848    0.34201    1.000
    N3996    N        0.68945    0.58921    0.35033    1.000
    N3997    N        0.68883    0.54414    0.25483    1.000
    N3998    N        0.64240    0.63780    0.25721    1.000
    Si3999   Si       0.66594    0.67170    0.27231    1.000
    N4000    N        0.68006    0.69170    0.35284    1.000
    Si4001   Si       0.64620    0.74349    0.29763    1.000
    Si4002   Si       0.64164    0.68254    0.33493    1.000
    N4003    N        0.64446    0.70025    0.29592    1.000
    N4004    N        0.64135    0.75326    0.25283    1.000
    N4005    N        0.63793    0.63919    0.32619    1.000
    N4006    N        0.65885    0.54582    0.40825    1.000
    Si4007   Si       0.66877    0.58453    0.42696    1.000
    N4008    N        0.63964    0.60239    0.45452    1.000
    N4009    N        0.68697    0.62005    0.40805    1.000
    Si4010   Si       0.68919    0.51652    0.41014    1.000
    N4011    N        0.69300    0.72796    0.46722    1.000
    N4012    N        0.65131    0.72875    0.40522    1.000
    Si4013   Si       0.65687    0.71442    0.44616    1.000
    N4014    N        0.66158    0.67010    0.44457    1.000
    Si4015   Si       0.68855    0.71805    0.38679    1.000
    N4016    N        0.67641    0.56982    0.50961    1.000
    Si4017   Si       0.68997    0.57700    0.59583    1.000
    Si4018   Si       0.68069    0.53313    0.53356    1.000
    N4019    N        0.64816    0.58859    0.59013    1.000
    Si4020   Si       0.64013    0.62644    0.56877    1.000
    N4021    N        0.64307    0.52903    0.55964    1.000
    Si4022   Si       0.63864    0.58303    0.49588    1.000
    N4023    N        0.68302    0.63949    0.56441    1.000
    N4024    N        0.66768    0.70085    0.59276    1.000
    Si4025   Si       0.64885    0.72648    0.51322    1.000
    N4026    N        0.68399    0.70289    0.52417    1.000
    Si4027   Si       0.69089    0.73704    0.60941    1.000
    Si4028   Si       0.69336    0.68345    0.56061    1.000
    N4029    N        0.65187    0.54044    0.69012    1.000
    Si4030   Si       0.64474    0.56196    0.65302    1.000
    N4031    N        0.67642    0.60552    0.69605    1.000
    Si4032   Si       0.64557    0.55476    0.73149    1.000
    N4033    N        0.68366    0.55734    0.63318    1.000
    N4034    N        0.68666    0.55634    0.74445    1.000
    Si4035   Si       0.66783    0.73073    0.67701    1.000
    Si4036   Si       0.66326    0.67443    0.62908    1.000
    N4037    N        0.69055    0.72910    0.71524    1.000
    N4038    N        0.64180    0.69960    0.65913    1.000
    N4039    N        0.69658    0.64892    0.63632    1.000
    Si4040   Si       0.66225    0.59490    0.83231    1.000
    N4041    N        0.67504    0.55956    0.85291    1.000
    N4042    N        0.68446    0.62638    0.85648    1.000
    N4043    N        0.68920    0.60247    0.79668    1.000
    Si4044   Si       0.66241    0.69297    0.80987    1.000
    N4045    N        0.66458    0.73168    0.83409    1.000
    N4046    N        0.64161    0.70111    0.77396    1.000
    Si4047   Si       0.63744    0.71348    0.86203    1.000
    Si4048   Si       0.67131    0.52360    0.87522    1.000
    Si4049   Si       0.64317    0.57575    0.94153    1.000
    N4050    N        0.67234    0.52847    0.91916    1.000
    N4051    N        0.67982    0.59255    0.95991    1.000
    Si4052   Si       0.64189    0.51010    0.94411    1.000
    N4053    N        0.69475    0.64633    0.93230    1.000
    N4054    N        0.66344    0.71365    0.89609    1.000
    Si4055   Si       0.66364    0.71597    0.93987    1.000
    Si4056   Si       0.65751    0.64414    0.95646    1.000
    N4057    N        0.63806    0.68471    0.95492    1.000
    N4058    N        0.65357    0.75735    0.94836    1.000
    Si4059   Si       0.67791    0.78522    0.01191    1.000
    Si4060   Si       0.68722    0.82340    0.07800    1.000
    N4061    N        0.64370    0.81593    0.06769    1.000
    N4062    N        0.69396    0.86439    0.08923    1.000
    N4063    N        0.67467    0.75590    0.06977    1.000
    N4064    N        0.67756    0.98351    0.02787    1.000
    N4065    N        0.69656    0.91453    0.03971    1.000
    Si4066   Si       0.64001    0.00035    0.03337    1.000
    Si4067   Si       0.69145    0.94602    0.01297    1.000
    N4068    N        0.63754    0.97409    0.11366    1.000
    N4069    N        0.65726    0.85632    0.21617    1.000
    Si4070   Si       0.65976    0.83532    0.17583    1.000
    N4071    N        0.67168    0.79489    0.17848    1.000
    Si4072   Si       0.66068    0.76231    0.15243    1.000
    N4073    N        0.69596    0.85292    0.15804    1.000
    N4074    N        0.64780    0.90536    0.13059    1.000
    Si4075   Si       0.67812    0.98416    0.13112    1.000
    Si4076   Si       0.68790    0.88395    0.12901    1.000
    N4077    N        0.64706    0.92759    0.22933    1.000
    Si4078   Si       0.65216    0.96601    0.20901    1.000
    N4079    N        0.66731    0.96418    0.16866    1.000
    N4080    N        0.68168    0.97832    0.23738    1.000
    N4081    N        0.67768    0.85329    0.27917    1.000
    Si4082   Si       0.66585    0.85611    0.36136    1.000
    N4083    N        0.68448    0.76082    0.30514    1.000
    Si4084   Si       0.63608    0.84659    0.29063    1.000
    Si4085   Si       0.68875    0.99610    0.33871    1.000
    Si4086   Si       0.67079    0.94034    0.26498    1.000
    N4087    N        0.67984    0.95330    0.35466    1.000
    N4088    N        0.66953    0.97711    0.29858    1.000
    N4089    N        0.65122    0.91486    0.29776    1.000
    Si4090   Si       0.64719    0.95093    0.32470    1.000
    Si4091   Si       0.68832    0.88964    0.29961    1.000
    N4092    N        0.69484    0.88309    0.34185    1.000
    Si4093   Si       0.68514    0.77163    0.47369    1.000
    Si4094   Si       0.68107    0.84671    0.48075    1.000
    Si4095   Si       0.66749    0.78056    0.39102    1.000
    N4096    N        0.68302    0.82213    0.38282    1.000
    N4097    N        0.67813    0.78575    0.43414    1.000
    N4098    N        0.64028    0.83059    0.49093    1.000
    N4099    N        0.64428    0.88641    0.38601    1.000
    N4100    N        0.67833    0.99230    0.42902    1.000
    Si4101   Si       0.63833    0.97359    0.42887    1.000
    N4102    N        0.67010    0.89319    0.47698    1.000
    Si4103   Si       0.63513    0.91810    0.48332    1.000
    N4104    N        0.67345    0.77827    0.60889    1.000
    Si4105   Si       0.68373    0.80939    0.57939    1.000
    N4106    N        0.64668    0.81594    0.55848    1.000
    N4107    N        0.66030    0.76880    0.50974    1.000
    Si4108   Si       0.67313    0.88151    0.60033    1.000
    Si4109   Si       0.67609    0.94056    0.53859    1.000
    N4110    N        0.68590    0.97351    0.56666    1.000
    N4111    N        0.69180    0.91014    0.57080    1.000
    N4112    N        0.63933    0.94267    0.51827    1.000
    N4113    N        0.65307    0.83270    0.65377    1.000
    Si4114   Si       0.67882    0.86342    0.66892    1.000
    Si4115   Si       0.64318    0.79466    0.63711    1.000
    N4116    N        0.66574    0.87327    0.70925    1.000
    N4117    N        0.64236    0.76653    0.67118    1.000
    Si4118   Si       0.66990    0.98755    0.70181    1.000
    N4119    N        0.68299    0.97955    0.74134    1.000
    Si4120   Si       0.68890    0.93205    0.66179    1.000
    N4121    N        0.67803    0.89613    0.64182    1.000
    N4122    N        0.65368    0.95413    0.67849    1.000
    Si4123   Si       0.67428    0.80071    0.79734    1.000
    N4124    N        0.66643    0.77136    0.76387    1.000
    N4125    N        0.67560    0.87570    0.83804    1.000
    N4126    N        0.64163    0.81934    0.81834    1.000
    N4127    N        0.69179    0.83689    0.77843    1.000
    Si4128   Si       0.68797    0.76305    0.85461    1.000
    Si4129   Si       0.63694    0.86063    0.83259    1.000
    N4130    N        0.65541    0.95652    0.80006    1.000
    Si4131   Si       0.68456    0.98406    0.78357    1.000
    N4132    N        0.68057    0.89984    0.76800    1.000
    Si4133   Si       0.64388    0.96564    0.83932    1.000
    N4134    N        0.67494    0.97816    0.86590    1.000
    Si4135   Si       0.64263    0.91796    0.78043    1.000
    N4136    N        0.63793    0.87671    0.96481    1.000
    N4137    N        0.63797    0.82044    0.92182    1.000
    N4138    N        0.65896    0.78457    0.87697    1.000
    N4139    N        0.67746    0.81413    0.97874    1.000
    Si4140   Si       0.66867    0.78914    0.92032    1.000
    Si4141   Si       0.63977    0.83399    0.96374    1.000
    Si4142   Si       0.63669    0.96294    0.97030    1.000
    Si4143   Si       0.67397    0.89637    0.95162    1.000
    N4144    N        0.67276    0.90543    0.90698    1.000
    Si4145   Si       0.65618    0.99443    0.90176    1.000
    N4146    N        0.67168    0.93401    0.97673    1.000
    N4147    N        0.64383    0.96252    0.92807    1.000
    N4148    N        0.73802    0.08940    0.01218    1.000
    N4149    N        0.73786    0.08131    0.07991    1.000
    N4150    N        0.73424    0.02263    0.04784    1.000
    Si4151   Si       0.74878    0.12395    0.08257    1.000
    Si4152   Si       0.70003    0.07564    0.99820    1.000
    Si4153   Si       0.69552    0.09142    0.07178    1.000
    N4154    N        0.70633    0.13361    0.06953    1.000
    Si4155   Si       0.70551    0.23312    0.05229    1.000
    N4156    N        0.73605    0.20222    0.03525    1.000
    N4157    N        0.69895    0.18744    0.11663    1.000
    Si4158   Si       0.73841    0.19618    0.99335    1.000
    Si4159   Si       0.75164    0.11511    0.15821    1.000
    Si4160   Si       0.70811    0.04378    0.16421    1.000
    N4161    N        0.74277    0.07755    0.23562    1.000
    N4162    N        0.73252    0.01499    0.19147    1.000
    Si4163   Si       0.70801    0.09906    0.21304    1.000
    N4164    N        0.73809    0.07404    0.15134    1.000
    N4165    N        0.72886    0.13141    0.19100    1.000
    Si4166   Si       0.75601    0.03767    0.22365    1.000
    N4167    N        0.71932    0.19858    0.22793    1.000
    N4168    N        0.75016    0.20459    0.16179    1.000
    N4169    N        0.74942    0.13923    0.12380    1.000
    Si4170   Si       0.74471    0.16503    0.21649    1.000
    Si4171   Si       0.73995    0.18372    0.12458    1.000
    Si4172   Si       0.73790    0.02270    0.29652    1.000
    N4173    N        0.71782    0.08714    0.33492    1.000
    Si4174   Si       0.74797    0.11722    0.33002    1.000
    N4175    N        0.74122    0.00791    0.25597    1.000
    Si4176   Si       0.73522    0.22565    0.25716    1.000
    Si4177   Si       0.70715    0.15073    0.27972    1.000
    N4178    N        0.72996    0.15353    0.31735    1.000
    N4179    N        0.73465    0.21834    0.29902    1.000
    Si4180   Si       0.71828    0.25167    0.32361    1.000
    N4181    N        0.71775    0.24357    0.36600    1.000
    N4182    N        0.74171    0.14313    0.25396    1.000
    N4183    N        0.75071    0.03068    0.46119    1.000
    Si4184   Si       0.72526    0.08930    0.37998    1.000
    N4185    N        0.71692    0.09046    0.45150    1.000
    N4186    N        0.74676    0.05540    0.39298    1.000
    N4187    N        0.75200    0.12223    0.37550    1.000
    N4188    N        0.71399    0.20068    0.45887    1.000
    Si4189   Si       0.73156    0.23911    0.44654    1.000
    N4190    N        0.72118    0.01740    0.60091    1.000
    Si4191   Si       0.70917    0.01205    0.56002    1.000
    Si4192   Si       0.71327    0.10918    0.49227    1.000
    N4193    N        0.70211    0.15067    0.50103    1.000
    Si4194   Si       0.71973    0.16903    0.53660    1.000
    N4195    N        0.74259    0.22988    0.59781    1.000
    Si4196   Si       0.71259    0.24036    0.56920    1.000
    N4197    N        0.71132    0.21173    0.53629    1.000
    Si4198   Si       0.70838    0.24626    0.50973    1.000
    N4199    N        0.73186    0.07125    0.64119    1.000
    Si4200   Si       0.74247    0.06516    0.73774    1.000
    N4201    N        0.70596    0.13549    0.64868    1.000
    N4202    N        0.69853    0.21748    0.73475    1.000
    N4203    N        0.74429    0.16724    0.72912    1.000
    Si4204   Si       0.70577    0.23385    0.69605    1.000
    N4205    N        0.71133    0.20850    0.66033    1.000
    Si4206   Si       0.75023    0.13738    0.64504    1.000
    Si4207   Si       0.74831    0.21478    0.63945    1.000
    N4208    N        0.71161    0.07979    0.81959    1.000
    N4209    N        0.74246    0.03952    0.77352    1.000
    Si4210   Si       0.70380    0.05527    0.78516    1.000
    Si4211   Si       0.74683    0.10344    0.82875    1.000
    N4212    N        0.69871    0.07582    0.74510    1.000
    N4213    N        0.74408    0.14635    0.82550    1.000
    Si4214   Si       0.73495    0.22709    0.82543    1.000
    N4215    N        0.74264    0.21548    0.78272    1.000
    Si4216   Si       0.70448    0.16423    0.82545    1.000
    Si4217   Si       0.72721    0.24708    0.75363    1.000
    Si4218   Si       0.71861    0.18640    0.75694    1.000
    N4219    N        0.69760    0.20695    0.83274    1.000
    N4220    N        0.74556    0.11996    0.93001    1.000
    N4221    N        0.74580    0.04556    0.91727    1.000
    N4222    N        0.70892    0.03652    0.98240    1.000
    Si4223   Si       0.71228    0.02574    0.94040    1.000
    Si4224   Si       0.70295    0.11704    0.93649    1.000
    N4225    N        0.70457    0.21047    0.96715    1.000
    N4226    N        0.75333    0.15894    0.98203    1.000
    Si4227   Si       0.74467    0.23222    0.94105    1.000
    N4228    N        0.72022    0.33257    0.08936    1.000
    Si4229   Si       0.73158    0.28995    0.09635    1.000
    Si4230   Si       0.75188    0.36408    0.08989    1.000
    N4231    N        0.71074    0.26133    0.02005    1.000
    Si4232   Si       0.74770    0.26653    0.99837    1.000
    N4233    N        0.70070    0.25917    0.08923    1.000
    N4234    N        0.73740    0.40383    0.08415    1.000
    N4235    N        0.70522    0.46053    0.01717    1.000
    Si4236   Si       0.74640    0.47310    0.02237    1.000
    Si4237   Si       0.69683    0.41188    0.09711    1.000
    N4238    N        0.70580    0.35468    0.16910    1.000
    N4239    N        0.74242    0.29643    0.14041    1.000
    Si4240   Si       0.72383    0.29082    0.22827    1.000
    Si4241   Si       0.72259    0.36281    0.20891    1.000
    Si4242   Si       0.70559    0.31359    0.15797    1.000
    N4243    N        0.71698    0.33299    0.24001    1.000
    N4244    N        0.70698    0.40143    0.21980    1.000
    N4245    N        0.75209    0.45375    0.18783    1.000
    Si4246   Si       0.73543    0.45285    0.14777    1.000
    N4247    N        0.71343    0.48892    0.13994    1.000
    Si4248   Si       0.75060    0.41874    0.21590    1.000
    N4249    N        0.70823    0.42018    0.14335    1.000
    N4250    N        0.73254    0.29131    0.32273    1.000
    N4251    N        0.70973    0.36031    0.31998    1.000
    Si4252   Si       0.74982    0.36895    0.33756    1.000
    N4253    N        0.71341    0.26333    0.25926    1.000
    Si4254   Si       0.70020    0.31875    0.33225    1.000
    N4255    N        0.71068    0.47847    0.27161    1.000
    N4256    N        0.73347    0.40283    0.35839    1.000
    Si4257   Si       0.73901    0.44814    0.28783    1.000
    N4258    N        0.70425    0.42384    0.29927    1.000
    Si4259   Si       0.69756    0.40149    0.33432    1.000
    Si4260   Si       0.74219    0.37016    0.45555    1.000
    N4261    N        0.70614    0.26797    0.42728    1.000
    N4262    N        0.74404    0.26069    0.48354    1.000
    Si4263   Si       0.74992    0.41434    0.39553    1.000
    N4264    N        0.70067    0.38007    0.44990    1.000
    N4265    N        0.73766    0.46592    0.48731    1.000
    N4266    N        0.75370    0.39325    0.49425    1.000
    Si4267   Si       0.74279    0.46917    0.44321    1.000
    N4268    N        0.71724    0.43846    0.41272    1.000
    N4269    N        0.70150    0.49240    0.44416    1.000
    N4270    N        0.72071    0.35218    0.54294    1.000
    N4271    N        0.72067    0.27450    0.54230    1.000
    N4272    N        0.71191    0.31078    0.59414    1.000
    Si4273   Si       0.73836    0.31394    0.55691    1.000
    Si4274   Si       0.73735    0.30516    0.49141    1.000
    Si4275   Si       0.74967    0.38335    0.53679    1.000
    Si4276   Si       0.70746    0.40118    0.59210    1.000
    N4277    N        0.73873    0.41707    0.56477    1.000
    N4278    N        0.74739    0.48952    0.55507    1.000
    Si4279   Si       0.75112    0.49673    0.51334    1.000
    Si4280   Si       0.74189    0.33396    0.61817    1.000
    N4281    N        0.70404    0.31492    0.68839    1.000
    Si4282   Si       0.70746    0.34075    0.72265    1.000
    N4283    N        0.74959    0.32983    0.72981    1.000
    Si4284   Si       0.75054    0.30238    0.69374    1.000
    N4285    N        0.73253    0.37734    0.62198    1.000
    N4286    N        0.73874    0.25750    0.71230    1.000
    N4287    N        0.74710    0.44694    0.64832    1.000
    N4288    N        0.75136    0.39738    0.69031    1.000
    Si4289   Si       0.71908    0.41820    0.71146    1.000
    Si4290   Si       0.70440    0.45244    0.64685    1.000
    N4291    N        0.73792    0.46248    0.71524    1.000
    Si4292   Si       0.71331    0.35885    0.83283    1.000
    N4293    N        0.71125    0.28041    0.77552    1.000
    N4294    N        0.74026    0.26752    0.83731    1.000
    Si4295   Si       0.73285    0.29693    0.80692    1.000
    N4296    N        0.74663    0.35570    0.85749    1.000
    N4297    N        0.71893    0.37743    0.79390    1.000
    N4298    N        0.71021    0.42592    0.75501    1.000
    Si4299   Si       0.73043    0.42071    0.79535    1.000
    N4300    N        0.72154    0.49115    0.78013    1.000
    N4301    N        0.70338    0.43977    0.82047    1.000
    N4302    N        0.69884    0.49586    0.85549    1.000
    Si4303   Si       0.70733    0.47198    0.74516    1.000
    Si4304   Si       0.69354    0.48062    0.81300    1.000
    N4305    N        0.70102    0.34020    0.94917    1.000
    Si4306   Si       0.72167    0.30504    0.93325    1.000
    N4307    N        0.72523    0.27007    0.95939    1.000
    N4308    N        0.71257    0.29806    0.89001    1.000
    Si4309   Si       0.73256    0.37319    0.95604    1.000
    Si4310   Si       0.75251    0.28270    0.87608    1.000
    N4311    N        0.74714    0.46923    0.90939    1.000
    N4312    N        0.72260    0.50246    0.96173    1.000
    Si4313   Si       0.73825    0.49726    0.87465    1.000
    N4314    N        0.70395    0.39725    0.97912    1.000
    N4315    N        0.74443    0.39199    0.91783    1.000
    N4316    N        0.71725    0.58482    0.01854    1.000
    Si4317   Si       0.72666    0.60036    0.06055    1.000
    Si4318   Si       0.70846    0.54432    0.03579    1.000
    N4319    N        0.74095    0.51621    0.03426    1.000
    N4320    N        0.70002    0.56387    0.07236    1.000
    N4321    N        0.69995    0.63313    0.06678    1.000
    N4322    N        0.74489    0.67887    0.10083    1.000
    N4323    N        0.74554    0.74613    0.07468    1.000
    Si4324   Si       0.70124    0.66854    0.09164    1.000
    N4325    N        0.72911    0.68586    0.99665    1.000
    N4326    N        0.73710    0.62178    0.14072    1.000
    N4327    N        0.70806    0.58644    0.20142    1.000
    N4328    N        0.72701    0.55702    0.14062    1.000
    Si4329   Si       0.71773    0.52242    0.16532    1.000
    Si4330   Si       0.71061    0.59296    0.15946    1.000
    Si4331   Si       0.73913    0.60523    0.22168    1.000
    N4332    N        0.70614    0.75262    0.23146    1.000
    Si4333   Si       0.75572    0.70283    0.17281    1.000
    N4334    N        0.72393    0.64559    0.23058    1.000
    Si4335   Si       0.75122    0.74928    0.24312    1.000
    N4336    N        0.71481    0.69101    0.18079    1.000
    Si4337   Si       0.71526    0.55210    0.34942    1.000
    N4338    N        0.74190    0.59774    0.26492    1.000
    Si4339   Si       0.71462    0.51960    0.27880    1.000
    N4340    N        0.69866    0.52604    0.31919    1.000
    N4341    N        0.75215    0.56934    0.33513    1.000
    Si4342   Si       0.73472    0.64129    0.27073    1.000
    N4343    N        0.73116    0.64842    0.35395    1.000
    N4344    N        0.73795    0.71217    0.31775    1.000
    Si4345   Si       0.71344    0.67886    0.32882    1.000
    N4346    N        0.70082    0.65876    0.29272    1.000
    Si4347   Si       0.72527    0.75490    0.32174    1.000
    Si4348   Si       0.71253    0.61577    0.37518    1.000
    Si4349   Si       0.73969    0.59991    0.43704    1.000
    N4350    N        0.72169    0.53604    0.38833    1.000
    N4351    N        0.70534    0.57632    0.45081    1.000
    Si4352   Si       0.71662    0.56908    0.49315    1.000
    N4353    N        0.75187    0.60743    0.39622    1.000
    N4354    N        0.75931    0.70583    0.46473    1.000
    N4355    N        0.73254    0.63920    0.45369    1.000
    Si4356   Si       0.69868    0.65565    0.43110    1.000
    N4357    N        0.71481    0.69287    0.41002    1.000
    Si4358   Si       0.75429    0.70509    0.42144    1.000
    Si4359   Si       0.74112    0.52633    0.57930    1.000
    N4360    N        0.73052    0.59775    0.60112    1.000
    N4361    N        0.74637    0.58950    0.51676    1.000
    N4362    N        0.70612    0.54887    0.56724    1.000
    N4363    N        0.71885    0.52644    0.50417    1.000
    N4364    N        0.74140    0.51500    0.62036    1.000
    Si4365   Si       0.71296    0.63903    0.59706    1.000
    N4366    N        0.74323    0.67570    0.51744    1.000
    N4367    N        0.74273    0.74416    0.51606    1.000
    N4368    N        0.72686    0.73624    0.58500    1.000
    N4369    N        0.73194    0.67381    0.57954    1.000
    Si4370   Si       0.71913    0.71142    0.50010    1.000
    Si4371   Si       0.70984    0.52730    0.64829    1.000
    N4372    N        0.72697    0.54092    0.68744    1.000
    N4373    N        0.73913    0.61261    0.67549    1.000
    Si4374   Si       0.70656    0.57459    0.70791    1.000
    N4375    N        0.73558    0.59098    0.73969    1.000
    Si4376   Si       0.74772    0.63160    0.71835    1.000
    N4377    N        0.71565    0.66143    0.70940    1.000
    N4378    N        0.70231    0.72583    0.64923    1.000
    Si4379   Si       0.70179    0.63703    0.67698    1.000
    Si4380   Si       0.74442    0.72986    0.66263    1.000
    Si4381   Si       0.72429    0.70247    0.72156    1.000
    Si4382   Si       0.71085    0.57432    0.77449    1.000
    N4383    N        0.74361    0.55475    0.79611    1.000
    N4384    N        0.75102    0.62680    0.82154    1.000
    Si4385   Si       0.70916    0.63412    0.82046    1.000
    N4386    N        0.70055    0.67404    0.80135    1.000
    N4387    N        0.73610    0.72437    0.76193    1.000
    Si4388   Si       0.73854    0.68554    0.78372    1.000
    Si4389   Si       0.70252    0.75495    0.74800    1.000
    N4390    N        0.73865    0.56685    0.95475    1.000
    N4391    N        0.73384    0.60582    0.90189    1.000
    N4392    N        0.73853    0.53580    0.89513    1.000
    Si4393   Si       0.71923    0.60483    0.94368    1.000
    Si4394   Si       0.71517    0.53528    0.93279    1.000
    N4395    N        0.74400    0.62947    0.97164    1.000
    Si4396   Si       0.72638    0.67101    0.95167    1.000
    Si4397   Si       0.71083    0.64013    0.89026    1.000
    Si4398   Si       0.72588    0.72658    0.98460    1.000
    N4399    N        0.70658    0.71094    0.94358    1.000
    Si4400   Si       0.70814    0.71322    0.89664    1.000
    N4401    N        0.72661    0.67877    0.88022    1.000
    N4402    N        0.71879    0.75166    0.88094    1.000
    Si4403   Si       0.74196    0.82386    0.02545    1.000
    N4404    N        0.70816    0.80003    0.10822    1.000
    N4405    N        0.70321    0.81059    0.03808    1.000
    N4406    N        0.74514    0.86683    0.03472    1.000
    Si4407   Si       0.70935    0.75943    0.09652    1.000
    Si4408   Si       0.71834    0.88766    0.06290    1.000
    N4409    N        0.71221    0.97047    0.10593    1.000
    Si4410   Si       0.73907    0.99716    0.08213    1.000
    Si4411   Si       0.73908    0.93710    0.11773    1.000
    Si4412   Si       0.71251    0.00539    0.01442    1.000
    N4413    N        0.72776    0.96515    0.00213    1.000
    N4414    N        0.74926    0.90848    0.08584    1.000
    N4415    N        0.71051    0.81425    0.23590    1.000
    N4416    N        0.73651    0.79243    0.17365    1.000
    Si4417   Si       0.72266    0.82154    0.14326    1.000
    Si4418   Si       0.70652    0.78532    0.20324    1.000
    N4419    N        0.73166    0.86839    0.21655    1.000
    Si4420   Si       0.73804    0.88007    0.17188    1.000
    Si4421   Si       0.69435    0.85347    0.23804    1.000
    Si4422   Si       0.73917    0.90884    0.23740    1.000
    N4423    N        0.71689    0.91084    0.14461    1.000
    Si4424   Si       0.72254    0.98501    0.22280    1.000
    N4425    N        0.73682    0.94637    0.21298    1.000
    N4426    N        0.74152    0.77052    0.28289    1.000
    Si4427   Si       0.70085    0.78058    0.26697    1.000
    N4428    N        0.70726    0.91426    0.26694    1.000
    N4429    N        0.74395    0.93206    0.35973    1.000
    N4430    N        0.73044    0.99687    0.33349    1.000
    Si4431   Si       0.70265    0.92004    0.36939    1.000
    N4432    N        0.70098    0.85562    0.44080    1.000
    Si4433   Si       0.74083    0.77230    0.38629    1.000
    N4434    N        0.70728    0.80790    0.48248    1.000
    N4435    N        0.74268    0.80749    0.40895    1.000
    Si4436   Si       0.70300    0.81853    0.42268    1.000
    N4437    N        0.70122    0.75652    0.37509    1.000
    N4438    N        0.72886    0.96769    0.46477    1.000
    Si4439   Si       0.71342    0.96639    0.42491    1.000
    Si4440   Si       0.70214    0.89821    0.44803    1.000
    N4441    N        0.69939    0.92623    0.41444    1.000
    N4442    N        0.74403    0.98616    0.40215    1.000
    Si4443   Si       0.74261    0.93442    0.48771    1.000
    N4444    N        0.74576    0.90182    0.46019    1.000
    Si4445   Si       0.72616    0.00607    0.48692    1.000
    N4446    N        0.71584    0.79837    0.55351    1.000
    Si4447   Si       0.72674    0.82256    0.51856    1.000
    N4448    N        0.70485    0.85864    0.51783    1.000
    Si4449   Si       0.74239    0.76349    0.55423    1.000
    N4450    N        0.69714    0.84620    0.59685    1.000
    N4451    N        0.75764    0.82139    0.61246    1.000
    Si4452   Si       0.71825    0.89101    0.54264    1.000
    N4453    N        0.71149    0.93003    0.51658    1.000
    Si4454   Si       0.70958    0.94628    0.59029    1.000
    N4455    N        0.74958    0.94736    0.57395    1.000
    N4456    N        0.73721    0.99853    0.52849    1.000
    Si4457   Si       0.73227    0.85482    0.62297    1.000
    N4458    N        0.72086    0.85098    0.66451    1.000
    N4459    N        0.73357    0.86641    0.73409    1.000
    N4460    N        0.72517    0.79077    0.73499    1.000
    Si4461   Si       0.75061    0.86061    0.69441    1.000
    N4462    N        0.70866    0.92319    0.70077    1.000
    N4463    N        0.70084    0.95783    0.62984    1.000
    Si4464   Si       0.69886    0.89389    0.73015    1.000
    Si4465   Si       0.69756    0.00137    0.63449    1.000
    N4466    N        0.70491    0.00064    0.67794    1.000
    Si4467   Si       0.74620    0.00513    0.68467    1.000
    N4468    N        0.70704    0.78450    0.81972    1.000
    Si4469   Si       0.72821    0.82790    0.75722    1.000
    Si4470   Si       0.74914    0.79552    0.82270    1.000
    Si4471   Si       0.69659    0.87479    0.79998    1.000
    N4472    N        0.73620    0.88924    0.80368    1.000
    Si4473   Si       0.71399    0.96987    0.85087    1.000
    N4474    N        0.72066    0.97252    0.80667    1.000
    N4475    N        0.71786    0.92710    0.85590    1.000
    N4476    N        0.75112    0.93348    0.75203    1.000
    Si4477   Si       0.71383    0.82465    0.95851    1.000
    N4478    N        0.73235    0.87236    0.88327    1.000
    N4479    N        0.74806    0.81364    0.98360    1.000
    Si4480   Si       0.74116    0.78282    0.90087    1.000
    N4481    N        0.71010    0.80113    0.92262    1.000
    N4482    N        0.70791    0.86774    0.95260    1.000
    Si4483   Si       0.69498    0.89364    0.87101    1.000
    Si4484   Si       0.73800    0.88377    0.92751    1.000
    Si4485   Si       0.75132    0.95665    0.96688    1.000
    N4486    N        0.74966    0.92008    0.94508    1.000
    N4487    N        0.73569    0.98752    0.93797    1.000
    N4488    N        0.75017    0.98564    0.87056    1.000
    N4489    N        0.79348    0.06816    0.04456    1.000
    N4490    N        0.79702    0.08210    0.10920    1.000
    Si4491   Si       0.76282    0.12438    0.00611    1.000
    Si4492   Si       0.75797    0.06459    0.11497    1.000
    N4493    N        0.75809    0.02214    0.11210    1.000
    Si4494   Si       0.80774    0.07053    0.00411    1.000
    Si4495   Si       0.75204    0.06118    0.04440    1.000
    N4496    N        0.76907    0.13853    0.04741    1.000
    Si4497   Si       0.76959    0.18265    0.05250    1.000
    N4498    N        0.77018    0.19508    0.09331    1.000
    N4499    N        0.80445    0.19422    0.03186    1.000
    Si4500   Si       0.80642    0.22622    0.00185    1.000
    N4501    N        0.79413    0.11310    0.17187    1.000
    N4502    N        0.80018    0.03098    0.21728    1.000
    N4503    N        0.80550    0.11128    0.24073    1.000
    Si4504   Si       0.78995    0.20167    0.17699    1.000
    N4505    N        0.78631    0.17207    0.20751    1.000
    N4506    N        0.81048    0.23812    0.19115    1.000
    Si4507   Si       0.81078    0.13750    0.20451    1.000
    N4508    N        0.77664    0.03507    0.30671    1.000
    N4509    N        0.77546    0.10121    0.30159    1.000
    Si4510   Si       0.76489    0.10619    0.25832    1.000
    Si4511   Si       0.80275    0.06926    0.31331    1.000
    N4512    N        0.81006    0.07860    0.35962    1.000
    N4513    N        0.79780    0.19405    0.30881    1.000
    N4514    N        0.76146    0.19500    0.36350    1.000
    N4515    N        0.77952    0.23301    0.25128    1.000
    Si4516   Si       0.75701    0.18672    0.32103    1.000
    Si4517   Si       0.81206    0.22053    0.27640    1.000
    N4518    N        0.80596    0.02848    0.40377    1.000
    Si4519   Si       0.79079    0.06916    0.39712    1.000
    N4520    N        0.78853    0.08450    0.43867    1.000
    Si4521   Si       0.76189    0.02102    0.41699    1.000
    Si4522   Si       0.75505    0.07395    0.46256    1.000
    N4523    N        0.80386    0.13523    0.48629    1.000
    N4524    N        0.79000    0.16693    0.42096    1.000
    Si4525   Si       0.79585    0.20546    0.43491    1.000
    Si4526   Si       0.75911    0.23481    0.37848    1.000
    N4527    N        0.76596    0.23362    0.42145    1.000
    N4528    N        0.79427    0.20742    0.47729    1.000
    Si4529   Si       0.77623    0.15650    0.38282    1.000
    N4530    N        0.78254    0.05244    0.58980    1.000
    Si4531   Si       0.80156    0.09178    0.59191    1.000
    Si4532   Si       0.78109    0.12556    0.52115    1.000
    N4533    N        0.77859    0.12587    0.61011    1.000
    N4534    N        0.80792    0.10330    0.54776    1.000
    Si4535   Si       0.75582    0.03829    0.61767    1.000
    N4536    N        0.75334    0.09631    0.50280    1.000
    Si4537   Si       0.79281    0.19060    0.54540    1.000
    N4538    N        0.78526    0.23436    0.53976    1.000
    N4539    N        0.80103    0.19583    0.58718    1.000
    Si4540   Si       0.78383    0.23744    0.58338    1.000
    N4541    N        0.76180    0.16241    0.53595    1.000
    Si4542   Si       0.79912    0.16505    0.61563    1.000
    Si4543   Si       0.78608    0.24614    0.49746    1.000
    N4544    N        0.79577    0.06719    0.65280    1.000
    Si4545   Si       0.75984    0.07528    0.67326    1.000
    N4546    N        0.75949    0.11801    0.68163    1.000
    N4547    N        0.75166    0.04445    0.70220    1.000
    N4548    N        0.76701    0.00798    0.64582    1.000
    N4549    N        0.76677    0.10054    0.74457    1.000
    N4550    N        0.79601    0.22274    0.73692    1.000
    N4551    N        0.80554    0.15793    0.70694    1.000
    N4552    N        0.76583    0.17624    0.64170    1.000
    N4553    N        0.77705    0.23850    0.66179    1.000
    Si4554   Si       0.78407    0.24690    0.70384    1.000
    Si4555   Si       0.77059    0.13586    0.71978    1.000
    N4556    N        0.78718    0.09742    0.80958    1.000
    Si4557   Si       0.78143    0.02670    0.78715    1.000
    Si4558   Si       0.80345    0.10596    0.85015    1.000
    Si4559   Si       0.80186    0.09067    0.77047    1.000
    N4560    N        0.78853    0.01935    0.82900    1.000
    N4561    N        0.76482    0.09339    0.86687    1.000
    N4562    N        0.80310    0.17728    0.79332    1.000
    Si4563   Si       0.77960    0.16943    0.82948    1.000
    Si4564   Si       0.78855    0.21646    0.78003    1.000
    N4565    N        0.76516    0.20550    0.84878    1.000
    N4566    N        0.80516    0.15045    0.85843    1.000
    N4567    N        0.80505    0.24481    0.80661    1.000
    N4568    N        0.80387    0.08335    0.91902    1.000
    N4569    N        0.79714    0.10804    0.98497    1.000
    N4570    N        0.78893    0.03696    0.98484    1.000
    Si4571   Si       0.76207    0.08493    0.91076    1.000
    Si4572   Si       0.76872    0.15467    0.93960    1.000
    N4573    N        0.75698    0.19309    0.92266    1.000
    N4574    N        0.76781    0.23030    0.98336    1.000
    N4575    N        0.81026    0.14968    0.92971    1.000
    N4576    N        0.75895    0.25031    0.90584    1.000
    Si4577   Si       0.77697    0.21503    0.88909    1.000
    N4578    N        0.77465    0.35043    0.05667    1.000
    N4579    N        0.76742    0.27645    0.07399    1.000
    Si4580   Si       0.78925    0.36570    0.01968    1.000
    Si4581   Si       0.78814    0.30710    0.04520    1.000
    Si4582   Si       0.80438    0.26643    0.09469    1.000
    N4583    N        0.77089    0.30368    0.00380    1.000
    Si4584   Si       0.76902    0.43472    0.08492    1.000
    N4585    N        0.77107    0.46874    0.05824    1.000
    N4586    N        0.81027    0.40364    0.01510    1.000
    N4587    N        0.80988    0.41543    0.08636    1.000
    N4588    N        0.77627    0.36651    0.12794    1.000
    N4589    N        0.80289    0.32424    0.17815    1.000
    Si4590   Si       0.77806    0.28997    0.16471    1.000
    Si4591   Si       0.78848    0.36460    0.16930    1.000
    N4592    N        0.80653    0.26802    0.13694    1.000
    N4593    N        0.75877    0.28121    0.20541    1.000
    Si4594   Si       0.79215    0.26095    0.22238    1.000
    N4595    N        0.76293    0.37868    0.20033    1.000
    Si4596   Si       0.77683    0.48989    0.19558    1.000
    Si4597   Si       0.79935    0.48904    0.12327    1.000
    N4598    N        0.81018    0.49308    0.16510    1.000
    N4599    N        0.77162    0.45475    0.12321    1.000
    N4600    N        0.79477    0.48030    0.23367    1.000
    Si4601   Si       0.77301    0.29886    0.33883    1.000
    N4602    N        0.76079    0.33484    0.36369    1.000
    N4603    N        0.78235    0.37895    0.31114    1.000
    N4604    N        0.78623    0.26291    0.35772    1.000
    N4605    N        0.80636    0.31419    0.31466    1.000
    Si4606   Si       0.78898    0.41553    0.28707    1.000
    N4607    N        0.77275    0.44783    0.31268    1.000
    Si4608   Si       0.79240    0.45837    0.35151    1.000
    N4609    N        0.77057    0.49257    0.36321    1.000
    N4610    N        0.75709    0.42305    0.25821    1.000
    Si4611   Si       0.79715    0.31463    0.46140    1.000
    Si4612   Si       0.78574    0.34676    0.39787    1.000
    N4613    N        0.76144    0.37741    0.41705    1.000
    N4614    N        0.81020    0.32000    0.41907    1.000
    N4615    N        0.81107    0.27488    0.47571    1.000
    N4616    N        0.75598    0.32716    0.45993    1.000
    N4617    N        0.79021    0.42955    0.38283    1.000
    N4618    N        0.77771    0.43933    0.44878    1.000
    Si4619   Si       0.76771    0.43360    0.48939    1.000
    Si4620   Si       0.81037    0.43198    0.42262    1.000
    N4621    N        0.76467    0.50578    0.43648    1.000
    N4622    N        0.76892    0.33136    0.58581    1.000
    N4623    N        0.79868    0.27314    0.59973    1.000
    N4624    N        0.76641    0.31447    0.52131    1.000
    Si4625   Si       0.80337    0.33779    0.52887    1.000
    Si4626   Si       0.80918    0.31755    0.59404    1.000
    N4627    N        0.79299    0.37848    0.54076    1.000
    N4628    N        0.78778    0.45907    0.59917    1.000
    N4629    N        0.79209    0.44822    0.52446    1.000
    Si4630   Si       0.76593    0.45254    0.56207    1.000
    N4631    N        0.79460    0.28793    0.69566    1.000
    Si4632   Si       0.79469    0.27774    0.64730    1.000
    N4633    N        0.75791    0.30994    0.65051    1.000
    N4634    N        0.81337    0.36046    0.69154    1.000
    Si4635   Si       0.75622    0.40358    0.64662    1.000
    Si4636   Si       0.77112    0.45754    0.68666    1.000
    N4637    N        0.79819    0.40071    0.63643    1.000
    N4638    N        0.80414    0.43419    0.70597    1.000
    Si4639   Si       0.76704    0.48271    0.62934    1.000
    Si4640   Si       0.79008    0.39318    0.70952    1.000
    N4641    N        0.78589    0.49648    0.66726    1.000
    Si4642   Si       0.78249    0.33642    0.83851    1.000
    Si4643   Si       0.77515    0.34268    0.76103    1.000
    N4644    N        0.76363    0.32371    0.80011    1.000
    N4645    N        0.78879    0.30478    0.87230    1.000
    N4646    N        0.78613    0.38311    0.75149    1.000
    Si4647   Si       0.78477    0.46032    0.83139    1.000
    N4648    N        0.77171    0.43311    0.80013    1.000
    Si4649   Si       0.80426    0.41130    0.78043    1.000
    N4650    N        0.76241    0.49558    0.83563    1.000
    N4651    N        0.78541    0.43453    0.86683    1.000
    Si4652   Si       0.78333    0.32798    0.96725    1.000
    N4653    N        0.76489    0.36431    0.98305    1.000
    Si4654   Si       0.76357    0.35926    0.89738    1.000
    N4655    N        0.80393    0.37378    0.88533    1.000
    N4656    N        0.76081    0.32840    0.92970    1.000
    N4657    N        0.79735    0.43166    0.93619    1.000
    Si4658   Si       0.75985    0.48228    0.94959    1.000
    Si4659   Si       0.76629    0.42819    0.90516    1.000
    N4660    N        0.77038    0.46387    0.98934    1.000
    Si4661   Si       0.80067    0.43093    0.98237    1.000
    Si4662   Si       0.79097    0.61804    0.06770    1.000
    N4663    N        0.78051    0.52290    0.10293    1.000
    N4664    N        0.76190    0.58770    0.08505    1.000
    N4665    N        0.76402    0.62190    0.03240    1.000
    N4666    N        0.80071    0.63311    0.11128    1.000
    Si4667   Si       0.77598    0.51356    0.06127    1.000
    Si4668   Si       0.75427    0.59386    0.99795    1.000
    N4669    N        0.79165    0.56917    0.99556    1.000
    Si4670   Si       0.76568    0.56179    0.11880    1.000
    N4671    N        0.80672    0.70196    0.09999    1.000
    N4672    N        0.76003    0.74833    0.99962    1.000
    Si4673   Si       0.76575    0.71756    0.10138    1.000
    Si4674   Si       0.75667    0.65657    0.00820    1.000
    N4675    N        0.77908    0.60354    0.20787    1.000
    N4676    N        0.79381    0.57175    0.14920    1.000
    Si4677   Si       0.78574    0.56170    0.19314    1.000
    N4678    N        0.80701    0.54564    0.22673    1.000
    N4679    N        0.75566    0.52824    0.19150    1.000
    N4680    N        0.81127    0.66799    0.22817    1.000
    Si4681   Si       0.76376    0.65105    0.12797    1.000
    N4682    N        0.76683    0.73196    0.20293    1.000
    N4683    N        0.76516    0.73243    0.14252    1.000
    Si4684   Si       0.79831    0.70912    0.22558    1.000
    N4685    N        0.77981    0.66807    0.16575    1.000
    Si4686   Si       0.79867    0.64148    0.19583    1.000
    N4687    N        0.80293    0.58580    0.29312    1.000
    N4688    N        0.80032    0.61925    0.35181    1.000
    Si4689   Si       0.79363    0.51387    0.25890    1.000
    Si4690   Si       0.76169    0.56967    0.29132    1.000
    Si4691   Si       0.77601    0.58360    0.36863    1.000
    N4692    N        0.75631    0.53103    0.27400    1.000
    Si4693   Si       0.80471    0.62704    0.30730    1.000
    Si4694   Si       0.77470    0.69721    0.30031    1.000
    N4695    N        0.77218    0.65320    0.29009    1.000
    N4696    N        0.77352    0.71696    0.26193    1.000
    N4697    N        0.81138    0.70611    0.31967    1.000
    Si4698   Si       0.76329    0.51960    0.39430    1.000
    N4699    N        0.79283    0.55290    0.39114    1.000
    N4700    N        0.76840    0.57449    0.45888    1.000
    Si4701   Si       0.78641    0.53360    0.46117    1.000
    Si4702   Si       0.78136    0.59798    0.49322    1.000
    N4703    N        0.79299    0.63861    0.48305    1.000
    Si4704   Si       0.75944    0.66294    0.47856    1.000
    Si4705   Si       0.76926    0.64497    0.37764    1.000
    Si4706   Si       0.77548    0.74100    0.48779    1.000
    N4707    N        0.78342    0.67895    0.40041    1.000
    N4708    N        0.76623    0.74442    0.40719    1.000
    N4709    N        0.77383    0.55199    0.56724    1.000
    Si4710   Si       0.80100    0.54547    0.53343    1.000
    N4711    N        0.78204    0.62496    0.56022    1.000
    N4712    N        0.78725    0.51732    0.50351    1.000
    Si4713   Si       0.75594    0.58988    0.56161    1.000
    Si4714   Si       0.81368    0.62214    0.59128    1.000
    N4715    N        0.79197    0.69739    0.57139    1.000
    Si4716   Si       0.76693    0.66583    0.55196    1.000
    Si4717   Si       0.81134    0.73327    0.55270    1.000
    Si4718   Si       0.75575    0.70707    0.59611    1.000
    N4719    N        0.81146    0.73072    0.50952    1.000
    Si4720   Si       0.75911    0.60090    0.63813    1.000
    N4721    N        0.78428    0.56773    0.64996    1.000
    Si4722   Si       0.77088    0.53836    0.67877    1.000
    N4723    N        0.78994    0.54318    0.71625    1.000
    N4724    N        0.78848    0.61391    0.72070    1.000
    Si4725   Si       0.77820    0.57665    0.74191    1.000
    Si4726   Si       0.79778    0.67452    0.64903    1.000
    N4727    N        0.76418    0.70024    0.63874    1.000
    N4728    N        0.80854    0.66639    0.68942    1.000
    N4729    N        0.75924    0.71147    0.70060    1.000
    N4730    N        0.79058    0.63412    0.62782    1.000
    Si4731   Si       0.80143    0.70308    0.71293    1.000
    N4732    N        0.78141    0.57284    0.85379    1.000
    N4733    N        0.79557    0.59306    0.77911    1.000
    Si4734   Si       0.76820    0.58589    0.81502    1.000
    Si4735   Si       0.75934    0.51301    0.79588    1.000
    N4736    N        0.79552    0.50963    0.77434    1.000
    Si4737   Si       0.79811    0.63480    0.76217    1.000
    N4738    N        0.75777    0.65555    0.75649    1.000
    Si4739   Si       0.78326    0.65600    0.82763    1.000
    Si4740   Si       0.78398    0.72884    0.83727    1.000
    N4741    N        0.76271    0.69452    0.81747    1.000
    Si4742   Si       0.77550    0.74527    0.76718    1.000
    N4743    N        0.80650    0.71430    0.75559    1.000
    N4744    N        0.79896    0.66426    0.86620    1.000
    Si4745   Si       0.76148    0.57288    0.89428    1.000
    N4746    N        0.79658    0.57405    0.92162    1.000
    Si4747   Si       0.78135    0.55221    0.95616    1.000
    N4748    N        0.79229    0.51193    0.94679    1.000
    Si4749   Si       0.76839    0.68731    0.88771    1.000
    N4750    N        0.79297    0.66713    0.98986    1.000
    Si4751   Si       0.80020    0.67891    0.94937    1.000
    Si4752   Si       0.80421    0.74689    0.91600    1.000
    N4753    N        0.78470    0.72764    0.88027    1.000
    N4754    N        0.76248    0.67935    0.92967    1.000
    N4755    N        0.77747    0.80300    0.04227    1.000
    N4756    N        0.80285    0.86003    0.07747    1.000
    N4757    N        0.80894    0.80472    0.10521    1.000
    Si4758   Si       0.81103    0.81788    0.06432    1.000
    Si4759   Si       0.77151    0.75977    0.04102    1.000
    Si4760   Si       0.77750    0.88813    0.05447    1.000
    N4761    N        0.77516    0.97248    0.08210    1.000
    N4762    N        0.79785    0.92030    0.03317    1.000
    Si4763   Si       0.80569    0.95041    0.06429    1.000
    Si4764   Si       0.79152    0.84201    0.12131    1.000
    Si4765   Si       0.80848    0.87542    0.18102    1.000
    Si4766   Si       0.76899    0.76473    0.17163    1.000
    N4767    N        0.79836    0.84198    0.20908    1.000
    N4768    N        0.77530    0.78664    0.23493    1.000
    N4769    N        0.80904    0.78256    0.17060    1.000
    Si4770   Si       0.75817    0.83193    0.22764    1.000
    N4771    N        0.75533    0.84859    0.14363    1.000
    N4772    N        0.80587    0.95397    0.21017    1.000
    Si4773   Si       0.78415    0.98936    0.12275    1.000
    Si4774   Si       0.76959    0.94351    0.18661    1.000
    N4775    N        0.77429    0.90175    0.18258    1.000
    N4776    N        0.76663    0.95863    0.14650    1.000
    Si4777   Si       0.79535    0.79209    0.34776    1.000
    Si4778   Si       0.77608    0.79620    0.27980    1.000
    Si4779   Si       0.78508    0.87241    0.28406    1.000
    N4780    N        0.76366    0.83723    0.27160    1.000
    N4781    N        0.80738    0.80482    0.30850    1.000
    N4782    N        0.75602    0.77557    0.34566    1.000
    N4783    N        0.77927    0.88008    0.32329    1.000
    N4784    N        0.79522    0.96996    0.33900    1.000
    Si4785   Si       0.77673    0.90199    0.36011    1.000
    Si4786   Si       0.80327    0.00156    0.30876    1.000
    N4787    N        0.77912    0.90592    0.25571    1.000
    Si4788   Si       0.75641    0.97214    0.35943    1.000
    N4789    N        0.80412    0.82660    0.37129    1.000
    N4790    N        0.78369    0.77477    0.46422    1.000
    Si4791   Si       0.77400    0.83734    0.40211    1.000
    N4792    N        0.76727    0.88026    0.39585    1.000
    N4793    N        0.78288    0.84262    0.44442    1.000
    Si4794   Si       0.79084    0.81537    0.47603    1.000
    Si4795   Si       0.80337    0.75811    0.42766    1.000
    Si4796   Si       0.77962    0.88512    0.43952    1.000
    Si4797   Si       0.78816    0.85149    0.53855    1.000
    N4798    N        0.76988    0.82220    0.51228    1.000
    Si4799   Si       0.79102    0.80402    0.59026    1.000
    N4800    N        0.78490    0.76705    0.56743    1.000
    N4801    N        0.81400    0.83355    0.56853    1.000
    N4802    N        0.75898    0.88004    0.55322    1.000
    N4803    N        0.79997    0.98723    0.56065    1.000
    Si4804   Si       0.76942    0.90989    0.58288    1.000
    N4805    N        0.77880    0.93992    0.51038    1.000
    Si4806   Si       0.76695    0.96885    0.54175    1.000
    N4807    N        0.81061    0.91912    0.56969    1.000
    Si4808   Si       0.81236    0.91584    0.52630    1.000
    N4809    N        0.79011    0.77228    0.73497    1.000
    Si4810   Si       0.75928    0.78834    0.70868    1.000
    N4811    N        0.77387    0.82522    0.68964    1.000
    Si4812   Si       0.77197    0.80371    0.65134    1.000
    N4813    N        0.80828    0.79381    0.63001    1.000
    N4814    N        0.75296    0.77096    0.66922    1.000
    Si4815   Si       0.75212    0.93255    0.70781    1.000
    N4816    N        0.75629    0.89100    0.61941    1.000
    Si4817   Si       0.79597    0.97816    0.65624    1.000
    N4818    N        0.76841    0.96859    0.69181    1.000
    N4819    N        0.80123    0.94150    0.63021    1.000
    N4820    N        0.76993    0.89998    0.68589    1.000
    Si4821   Si       0.78880    0.90333    0.64671    1.000
    Si4822   Si       0.78752    0.85280    0.80306    1.000
    N4823    N        0.77998    0.76383    0.80972    1.000
    N4824    N        0.78751    0.87131    0.84357    1.000
    N4825    N        0.79648    0.87975    0.76950    1.000
    N4826    N        0.75655    0.80568    0.86710    1.000
    N4827    N        0.75735    0.82450    0.79202    1.000
    Si4828   Si       0.78520    0.97936    0.84520    1.000
    N4829    N        0.77497    0.94061    0.82581    1.000
    N4830    N        0.79056    0.98256    0.77813    1.000
    Si4831   Si       0.75648    0.90276    0.84327    1.000
    Si4832   Si       0.75514    0.89210    0.76325    1.000
    Si4833   Si       0.75708    0.95653    0.78889    1.000
    Si4834   Si       0.77067    0.84640    0.87915    1.000
    N4835    N        0.77160    0.85750    0.92465    1.000
    N4836    N        0.77146    0.76936    0.93139    1.000
    Si4837   Si       0.77600    0.78194    0.97415    1.000
    Si4838   Si       0.80741    0.00368    0.96533    1.000
    N4839    N        0.80296    0.00613    0.92231    1.000
    N4840    N        0.79290    0.96407    0.97846    1.000
    Si4841   Si       0.76146    0.00500    0.90856    1.000
    N4842    N        0.84322    0.03341    0.08557    1.000
    N4843    N        0.85205    0.09944    0.06553    1.000
    Si4844   Si       0.82295    0.07043    0.07539    1.000
    N4845    N        0.85191    0.07039    0.00316    1.000
    Si4846   Si       0.86466    0.12989    0.09567    1.000
    Si4847   Si       0.86676    0.10705    0.02347    1.000
    N4848    N        0.84127    0.16505    0.08428    1.000
    N4849    N        0.85475    0.14880    0.01388    1.000
    N4850    N        0.83268    0.23399    0.08927    1.000
    Si4851   Si       0.84199    0.17608    0.04338    1.000
    Si4852   Si       0.81495    0.19546    0.10297    1.000
    Si4853   Si       0.87461    0.23195    0.07367    1.000
    N4854    N        0.85336    0.12029    0.13495    1.000
    Si4855   Si       0.85144    0.02642    0.12792    1.000
    Si4856   Si       0.83601    0.04299    0.19897    1.000
    Si4857   Si       0.82219    0.09261    0.14468    1.000
    N4858    N        0.86082    0.07028    0.21856    1.000
    N4859    N        0.83413    0.05295    0.15801    1.000
    N4860    N        0.81894    0.19769    0.14494    1.000
    Si4861   Si       0.83379    0.23855    0.15358    1.000
    N4862    N        0.85049    0.15166    0.20014    1.000
    Si4863   Si       0.86410    0.16198    0.24233    1.000
    N4864    N        0.83698    0.06414    0.28487    1.000
    N4865    N        0.83700    0.01828    0.33109    1.000
    Si4866   Si       0.86428    0.03441    0.30270    1.000
    Si4867   Si       0.84103    0.09053    0.25105    1.000
    N4868    N        0.87260    0.12114    0.25730    1.000
    N4869    N        0.84378    0.19490    0.26222    1.000
    N4870    N        0.83842    0.21949    0.36197    1.000
    Si4871   Si       0.82520    0.18494    0.33852    1.000
    N4872    N        0.82910    0.25414    0.30158    1.000
    N4873    N        0.86682    0.17605    0.32310    1.000
    N4874    N        0.81348    0.14841    0.35951    1.000
    Si4875   Si       0.83882    0.02120    0.37542    1.000
    Si4876   Si       0.83439    0.11441    0.37631    1.000
    N4877    N        0.84523    0.08329    0.48743    1.000
    N4878    N        0.84258    0.11642    0.41911    1.000
    Si4879   Si       0.82173    0.10583    0.45637    1.000
    N4880    N        0.86932    0.02251    0.45470    1.000
    N4881    N        0.87250    0.04795    0.38463    1.000
    N4882    N        0.83339    0.22786    0.42740    1.000
    Si4883   Si       0.84718    0.25652    0.45811    1.000
    Si4884   Si       0.82158    0.17332    0.48452    1.000
    N4885    N        0.86706    0.23190    0.48834    1.000
    N4886    N        0.85993    0.16720    0.46538    1.000
    Si4887   Si       0.86107    0.21586    0.39736    1.000
    Si4888   Si       0.84521    0.08277    0.53215    1.000
    N4889    N        0.84606    0.04328    0.55383    1.000
    N4890    N        0.83968    0.09776    0.61154    1.000
    Si4891   Si       0.81689    0.02380    0.57805    1.000
    N4892    N        0.82996    0.17969    0.52798    1.000
    Si4893   Si       0.86678    0.18805    0.55026    1.000
    N4894    N        0.86067    0.04678    0.65772    1.000
    Si4895   Si       0.83585    0.08147    0.65384    1.000
    N4896    N        0.84213    0.10542    0.68995    1.000
    Si4897   Si       0.86422    0.10243    0.72816    1.000
    Si4898   Si       0.83640    0.14791    0.67898    1.000
    Si4899   Si       0.86084    0.23925    0.66220    1.000
    N4900    N        0.83408    0.16052    0.63898    1.000
    Si4901   Si       0.82409    0.19440    0.72291    1.000
    N4902    N        0.84269    0.21134    0.68841    1.000
    Si4903   Si       0.85245    0.03370    0.75441    1.000
    N4904    N        0.83619    0.11327    0.75929    1.000
    N4905    N        0.84413    0.09597    0.86331    1.000
    Si4906   Si       0.86866    0.13081    0.85539    1.000
    N4907    N        0.81257    0.04831    0.76763    1.000
    Si4908   Si       0.83813    0.15193    0.78025    1.000
    N4909    N        0.86709    0.14172    0.81185    1.000
    Si4910   Si       0.84407    0.24822    0.82258    1.000
    N4911    N        0.86833    0.21351    0.81576    1.000
    N4912    N        0.85430    0.17847    0.75026    1.000
    N4913    N        0.86271    0.09910    0.93408    1.000
    N4914    N        0.85757    0.03557    0.89339    1.000
    Si4915   Si       0.84319    0.07540    0.90214    1.000
    Si4916   Si       0.82065    0.11230    0.94849    1.000
    N4917    N        0.86650    0.16386    0.88567    1.000
    N4918    N        0.82088    0.21260    0.89423    1.000
    Si4919   Si       0.85082    0.24443    0.90029    1.000
    N4920    N        0.84131    0.21500    0.97956    1.000
    Si4921   Si       0.82555    0.16880    0.89375    1.000
    Si4922   Si       0.86973    0.18470    0.99243    1.000
    Si4923   Si       0.85422    0.25919    0.97503    1.000
    N4924    N        0.84416    0.36303    0.10632    1.000
    N4925    N        0.82347    0.29961    0.07415    1.000
    Si4926   Si       0.85547    0.32382    0.09601    1.000
    Si4927   Si       0.85018    0.29919    0.03765    1.000
    N4928    N        0.82297    0.33548    0.02043    1.000
    N4929    N        0.82952    0.26645    0.01235    1.000
    N4930    N        0.84646    0.46179    0.03948    1.000
    N4931    N        0.83814    0.48508    0.10355    1.000
    Si4932   Si       0.83295    0.42123    0.04911    1.000
    Si4933   Si       0.84377    0.49800    0.06284    1.000
    N4934    N        0.86953    0.39989    0.05672    1.000
    Si4935   Si       0.83388    0.31601    0.20942    1.000
    N4936    N        0.85094    0.35055    0.23194    1.000
    N4937    N        0.81649    0.29014    0.24157    1.000
    N4938    N        0.87446    0.30083    0.19812    1.000
    Si4939   Si       0.81380    0.38992    0.12047    1.000
    Si4940   Si       0.85237    0.44173    0.24248    1.000
    Si4941   Si       0.86085    0.41165    0.17096    1.000
    N4942    N        0.86568    0.42482    0.12789    1.000
    N4943    N        0.82356    0.39038    0.16446    1.000
    N4944    N        0.85131    0.44260    0.19937    1.000
    Si4945   Si       0.84678    0.48277    0.18431    1.000
    Si4946   Si       0.83172    0.29324    0.28304    1.000
    N4947    N        0.84817    0.37180    0.30398    1.000
    N4948    N        0.85313    0.29340    0.36085    1.000
    Si4949   Si       0.81397    0.35595    0.32749    1.000
    N4950    N        0.81710    0.36493    0.36974    1.000
    Si4951   Si       0.82691    0.25875    0.34498    1.000
    Si4952   Si       0.84927    0.38093    0.26156    1.000
    N4953    N        0.83350    0.47545    0.33933    1.000
    Si4954   Si       0.85619    0.49207    0.30488    1.000
    N4955    N        0.82272    0.41492    0.26182    1.000
    Si4956   Si       0.84881    0.30942    0.40242    1.000
    N4957    N        0.81525    0.34463    0.48626    1.000
    Si4958   Si       0.84306    0.37591    0.47390    1.000
    N4959    N        0.87009    0.28126    0.43159    1.000
    Si4960   Si       0.84847    0.38060    0.39599    1.000
    Si4961   Si       0.86646    0.47236    0.44708    1.000
    Si4962   Si       0.85578    0.48035    0.37626    1.000
    N4963    N        0.83934    0.46436    0.41488    1.000
    N4964    N        0.84460    0.49063    0.47968    1.000
    N4965    N        0.83551    0.39773    0.43467    1.000
    N4966    N        0.83192    0.32037    0.55759    1.000
    N4967    N        0.84106    0.41762    0.57953    1.000
    N4968    N        0.85539    0.46432    0.53534    1.000
    N4969    N        0.84528    0.40616    0.50673    1.000
    Si4970   Si       0.82275    0.48667    0.51691    1.000
    Si4971   Si       0.82133    0.43280    0.61491    1.000
    Si4972   Si       0.81884    0.41480    0.53896    1.000
    N4973    N        0.82814    0.33386    0.62932    1.000
    N4974    N        0.86087    0.31329    0.69572    1.000
    Si4975   Si       0.85687    0.31047    0.65222    1.000
    N4976    N        0.83729    0.27270    0.64977    1.000
    Si4977   Si       0.82722    0.37100    0.65135    1.000
    Si4978   Si       0.82160    0.32183    0.71117    1.000
    N4979    N        0.84169    0.45682    0.64725    1.000
    N4980    N        0.86598    0.38909    0.65129    1.000
    Si4981   Si       0.83022    0.49418    0.66790    1.000
    N4982    N        0.83783    0.49091    0.71179    1.000
    Si4983   Si       0.84174    0.45042    0.72491    1.000
    N4984    N        0.82784    0.33007    0.82931    1.000
    Si4985   Si       0.85401    0.36623    0.82162    1.000
    Si4986   Si       0.84031    0.31380    0.78700    1.000
    N4987    N        0.84925    0.26574    0.86389    1.000
    Si4988   Si       0.83133    0.30695    0.86716    1.000
    N4989    N        0.86307    0.27763    0.79611    1.000
    N4990    N        0.86655    0.35123    0.78430    1.000
    N4991    N        0.81452    0.32175    0.75435    1.000
    Si4992   Si       0.85143    0.44071    0.80993    1.000
    N4993    N        0.82788    0.47377    0.82617    1.000
    N4994    N        0.83573    0.43751    0.76626    1.000
    N4995    N        0.82877    0.40112    0.81778    1.000
    Si4996   Si       0.81911    0.40794    0.86145    1.000
    Si4997   Si       0.83206    0.50824    0.79919    1.000
    N4998    N        0.87241    0.49874    0.78654    1.000
    N4999    N        0.82290    0.33929    0.95363    1.000
    Si5000   Si       0.85224    0.31029    0.93752    1.000
    N5001    N        0.85312    0.32919    0.89810    1.000
    Si5002   Si       0.83187    0.36322    0.91630    1.000
    N5003    N        0.84060    0.26818    0.93419    1.000
    Si5004   Si       0.84991    0.34637    0.99010    1.000
    N5005    N        0.87163    0.30992    0.97779    1.000
    Si5006   Si       0.84866    0.48097    0.86625    1.000
    N5007    N        0.85527    0.43486    0.86439    1.000
    N5008    N        0.85670    0.39814    0.92457    1.000
    N5009    N        0.84710    0.47209    0.91330    1.000
    N5010    N        0.84294    0.44601    0.97638    1.000
    Si5011   Si       0.83979    0.43646    0.93238    1.000
    N5012    N        0.82370    0.58958    0.05959    1.000
    Si5013   Si       0.82193    0.56139    0.02573    1.000
    Si5014   Si       0.85956    0.60678    0.08336    1.000
    N5015    N        0.86179    0.56364    0.00818    1.000
    N5016    N        0.81355    0.52348    0.04306    1.000
    N5017    N        0.81663    0.65465    0.05292    1.000
    Si5018   Si       0.82868    0.66258    0.01306    1.000
    Si5019   Si       0.83577    0.73072    0.08655    1.000
    Si5020   Si       0.82618    0.66560    0.09286    1.000
    N5021    N        0.86526    0.64797    0.09998    1.000
    N5022    N        0.84869    0.70145    0.00249    1.000
    N5023    N        0.81551    0.75103    0.05288    1.000
    N5024    N        0.86825    0.70566    0.07268    1.000
    N5025    N        0.85895    0.58955    0.12137    1.000
    Si5026   Si       0.82214    0.60297    0.13888    1.000
    N5027    N        0.86447    0.51301    0.21069    1.000
    Si5028   Si       0.84790    0.53797    0.24026    1.000
    N5029    N        0.83217    0.62353    0.17561    1.000
    N5030    N        0.86527    0.68477    0.17578    1.000
    N5031    N        0.84900    0.74716    0.12475    1.000
    Si5032   Si       0.86950    0.64455    0.18964    1.000
    N5033    N        0.82778    0.74068    0.22069    1.000
    Si5034   Si       0.83927    0.56375    0.29267    1.000
    N5035    N        0.85168    0.57215    0.33215    1.000
    Si5036   Si       0.83985    0.60677    0.36154    1.000
    N5037    N        0.83145    0.52220    0.28112    1.000
    N5038    N        0.86291    0.57561    0.25846    1.000
    N5039    N        0.84241    0.64219    0.29350    1.000
    Si5040   Si       0.83877    0.72751    0.34204    1.000
    Si5041   Si       0.84709    0.66447    0.25354    1.000
    N5042    N        0.86805    0.70210    0.25765    1.000
    N5043    N        0.85762    0.52399    0.38141    1.000
    N5044    N        0.82840    0.54168    0.44652    1.000
    Si5045   Si       0.83305    0.55141    0.40567    1.000
    N5046    N        0.84888    0.59007    0.40018    1.000
    Si5047   Si       0.86339    0.52866    0.46473    1.000
    N5048    N        0.86557    0.62011    0.47723    1.000
    Si5049   Si       0.86582    0.61658    0.43078    1.000
    N5050    N        0.82183    0.72082    0.44006    1.000
    N5051    N        0.83959    0.65275    0.42647    1.000
    N5052    N        0.84646    0.69711    0.37357    1.000
    Si5053   Si       0.82397    0.68985    0.40900    1.000
    N5054    N        0.85486    0.68412    0.48406    1.000
    Si5055   Si       0.83215    0.65183    0.46970    1.000
    Si5056   Si       0.84220    0.72346    0.47829    1.000
    N5057    N        0.86915    0.75735    0.47673    1.000
    N5058    N        0.83017    0.58215    0.60136    1.000
    Si5059   Si       0.85855    0.58808    0.50619    1.000
    Si5060   Si       0.85351    0.55913    0.57120    1.000
    N5061    N        0.83629    0.52413    0.54692    1.000
    N5062    N        0.81537    0.57843    0.50946    1.000
    N5063    N        0.84812    0.65088    0.58489    1.000
    Si5064   Si       0.83545    0.69077    0.59340    1.000
    N5065    N        0.84813    0.72705    0.57458    1.000
    Si5066   Si       0.82524    0.57281    0.64434    1.000
    N5067    N        0.84223    0.53144    0.65132    1.000
    N5068    N        0.84045    0.60086    0.67390    1.000
    Si5069   Si       0.82072    0.52161    0.73897    1.000
    Si5070   Si       0.82527    0.62776    0.70339    1.000
    N5071    N        0.83660    0.72615    0.70008    1.000
    N5072    N        0.83050    0.70011    0.63471    1.000
    Si5073   Si       0.85643    0.72303    0.66344    1.000
    Si5074   Si       0.83080    0.75473    0.73376    1.000
    Si5075   Si       0.83314    0.57686    0.78971    1.000
    N5076    N        0.82855    0.54556    0.81833    1.000
    N5077    N        0.84889    0.55066    0.75711    1.000
    N5078    N        0.85574    0.60820    0.81191    1.000
    Si5079   Si       0.81925    0.55396    0.85768    1.000
    N5080    N        0.84135    0.63399    0.74260    1.000
    Si5081   Si       0.87102    0.60801    0.85162    1.000
    N5082    N        0.81413    0.65683    0.79725    1.000
    Si5083   Si       0.82872    0.69952    0.78942    1.000
    N5084    N        0.82613    0.72348    0.82531    1.000
    Si5085   Si       0.85761    0.73640    0.85157    1.000
    Si5086   Si       0.86313    0.64078    0.77920    1.000
    N5087    N        0.87020    0.68393    0.78942    1.000
    N5088    N        0.84856    0.58160    0.87501    1.000
    N5089    N        0.82274    0.51500    0.87732    1.000
    N5090    N        0.85674    0.54159    0.92937    1.000
    Si5091   Si       0.83922    0.58034    0.91780    1.000
    Si5092   Si       0.82821    0.51017    0.92109    1.000
    N5093    N        0.85020    0.63131    0.99497    1.000
    Si5094   Si       0.86096    0.63649    0.95297    1.000
    Si5095   Si       0.83778    0.66792    0.88594    1.000
    N5096    N        0.82010    0.71602    0.94467    1.000
    N5097    N        0.85381    0.71026    0.88446    1.000
    N5098    N        0.82805    0.65172    0.92766    1.000
    Si5099   Si       0.86085    0.70872    0.95685    1.000
    N5100    N        0.84513    0.81166    0.03830    1.000
    Si5101   Si       0.83906    0.77036    0.02365    1.000
    Si5102   Si       0.83317    0.88484    0.10094    1.000
    N5103    N        0.83054    0.97389    0.03807    1.000
    N5104    N        0.82737    0.92795    0.09688    1.000
    Si5105   Si       0.85949    0.00176    0.05869    1.000
    Si5106   Si       0.82075    0.94527    0.00350    1.000
    N5107    N        0.84634    0.80622    0.23275    1.000
    Si5108   Si       0.83396    0.78632    0.13542    1.000
    Si5109   Si       0.83742    0.84803    0.23051    1.000
    N5110    N        0.82025    0.86851    0.14043    1.000
    N5111    N        0.86692    0.81438    0.14362    1.000
    Si5112   Si       0.81530    0.78181    0.21405    1.000
    Si5113   Si       0.85248    0.95736    0.11984    1.000
    N5114    N        0.83791    0.88926    0.21158    1.000
    Si5115   Si       0.81876    0.91964    0.23653    1.000
    N5116    N        0.82676    0.99033    0.13046    1.000
    N5117    N        0.85707    0.00407    0.20544    1.000
    Si5118   Si       0.82088    0.99224    0.22812    1.000
    N5119    N        0.87251    0.94917    0.15645    1.000
    N5120    N        0.85221    0.86468    0.33175    1.000
    Si5121   Si       0.83827    0.83463    0.30261    1.000
    N5122    N        0.82536    0.86247    0.27052    1.000
    N5123    N        0.82050    0.76091    0.36325    1.000
    Si5124   Si       0.84610    0.84060    0.36788    1.000
    N5125    N        0.85695    0.93575    0.31910    1.000
    Si5126   Si       0.83411    0.95260    0.35402    1.000
    Si5127   Si       0.85783    0.96293    0.28416    1.000
    N5128    N        0.82136    0.98382    0.27250    1.000
    N5129    N        0.85764    0.93331    0.25246    1.000
    N5130    N        0.83513    0.81712    0.48314    1.000
    Si5131   Si       0.85695    0.77465    0.38776    1.000
    N5132    N        0.83585    0.78570    0.42425    1.000
    N5133    N        0.85827    0.86244    0.40376    1.000
    Si5134   Si       0.86186    0.79567    0.45766    1.000
    N5135    N        0.86885    0.87814    0.47051    1.000
    N5136    N        0.81631    0.91775    0.37267    1.000
    Si5137   Si       0.85029    0.91985    0.46800    1.000
    N5138    N        0.81832    0.90775    0.44106    1.000
    N5139    N        0.85035    0.98044    0.38324    1.000
    N5140    N        0.86743    0.95443    0.45106    1.000
    Si5141   Si       0.84176    0.90164    0.40353    1.000
    Si5142   Si       0.85683    0.83782    0.57448    1.000
    Si5143   Si       0.85347    0.85178    0.50104    1.000
    N5144    N        0.86598    0.80026    0.59555    1.000
    N5145    N        0.81609    0.87420    0.51395    1.000
    N5146    N        0.86996    0.87585    0.59187    1.000
    N5147    N        0.84705    0.93257    0.50905    1.000
    N5148    N        0.86305    0.95883    0.57546    1.000
    Si5149   Si       0.82120    0.95846    0.59095    1.000
    N5150    N        0.82709    0.00064    0.61257    1.000
    Si5151   Si       0.85016    0.79807    0.63629    1.000
    Si5152   Si       0.85512    0.86667    0.67107    1.000
    N5153    N        0.85004    0.86672    0.71804    1.000
    N5154    N        0.86606    0.82544    0.66392    1.000
    N5155    N        0.81961    0.87477    0.64926    1.000
    N5156    N        0.87010    0.76216    0.64957    1.000
    N5157    N        0.86716    0.77830    0.72083    1.000
    Si5158   Si       0.85773    0.00526    0.64410    1.000
    N5159    N        0.83543    0.98157    0.67381    1.000
    N5160    N        0.83242    0.93275    0.73686    1.000
    N5161    N        0.84871    0.99317    0.74040    1.000
    Si5162   Si       0.84967    0.96171    0.70875    1.000
    N5163    N        0.84552    0.77920    0.84892    1.000
    Si5164   Si       0.82354    0.77927    0.81208    1.000
    Si5165   Si       0.85870    0.84426    0.80151    1.000
    N5166    N        0.82127    0.82307    0.80420    1.000
    N5167    N        0.84481    0.76259    0.77780    1.000
    Si5168   Si       0.82928    0.87530    0.86225    1.000
    N5169    N        0.86558    0.85381    0.84377    1.000
    N5170    N        0.85782    0.88478    0.78424    1.000
    Si5171   Si       0.82994    0.96612    0.76900    1.000
    N5172    N        0.86263    0.95765    0.79740    1.000
    N5173    N        0.85077    0.91675    0.85010    1.000
    Si5174   Si       0.83273    0.89069    0.74919    1.000
    N5175    N        0.81866    0.97202    0.86953    1.000
    N5176    N        0.83379    0.77779    0.91477    1.000
    Si5177   Si       0.84605    0.80660    0.88423    1.000
    Si5178   Si       0.85397    0.77887    0.95434    1.000
    N5179    N        0.84152    0.86208    0.95564    1.000
    N5180    N        0.81944    0.77710    0.98437    1.000
    N5181    N        0.81772    0.83899    0.88826    1.000
    Si5182   Si       0.81319    0.86493    0.92370    1.000
    N5183    N        0.85691    0.93062    0.98457    1.000
    Si5184   Si       0.83731    0.93610    0.88661    1.000
    N5185    N        0.86068    0.96067    0.91781    1.000
    N5186    N        0.81835    0.89981    0.90001    1.000
    N5187    N        0.85062    0.00192    0.97138    1.000
    Si5188   Si       0.86664    0.88843    0.98278    1.000
    Si5189   Si       0.83804    0.99746    0.89972    1.000
    N5190    N        0.91017    0.10609    0.02979    1.000
    N5191    N        0.88918    0.02006    0.03228    1.000
    N5192    N        0.90712    0.12596    0.09649    1.000
    N5193    N        0.92545    0.05378    0.08404    1.000
    Si5194   Si       0.92586    0.09540    0.06964    1.000
    Si5195   Si       0.92937    0.02575    0.04876    1.000
    Si5196   Si       0.92733    0.02519    0.11558    1.000
    N5197    N        0.90861    0.22161    0.09734    1.000
    Si5198   Si       0.90501    0.23425    0.02077    1.000
    N5199    N        0.87559    0.20471    0.03392    1.000
    Si5200   Si       0.90195    0.08487    0.21391    1.000
    N5201    N        0.89087    0.01454    0.14357    1.000
    N5202    N        0.90369    0.11614    0.18375    1.000
    N5203    N        0.92556    0.05230    0.20121    1.000
    N5204    N        0.87690    0.24253    0.15265    1.000
    Si5205   Si       0.90817    0.21584    0.14275    1.000
    N5206    N        0.90166    0.17167    0.14684    1.000
    Si5207   Si       0.87411    0.14295    0.16573    1.000
    N5208    N        0.89659    0.05859    0.31837    1.000
    Si5209   Si       0.89504    0.07748    0.35769    1.000
    Si5210   Si       0.91587    0.12927    0.26740    1.000
    N5211    N        0.87256    0.11264    0.35673    1.000
    N5212    N        0.92805    0.11728    0.30558    1.000
    N5213    N        0.93371    0.09642    0.24568    1.000
    Si5214   Si       0.88054    0.19836    0.28977    1.000
    N5215    N        0.90459    0.17249    0.26025    1.000
    Si5216   Si       0.88646    0.15486    0.35640    1.000
    N5217    N        0.90059    0.23467    0.28534    1.000
    N5218    N        0.92724    0.16816    0.35442    1.000
    Si5219   Si       0.87703    0.06043    0.47414    1.000
    Si5220   Si       0.89267    0.03436    0.41860    1.000
    N5221    N        0.90198    0.07190    0.43972    1.000
    N5222    N        0.90271    0.23012    0.39781    1.000
    Si5223   Si       0.87111    0.14812    0.42842    1.000
    Si5224   Si       0.88812    0.19304    0.48697    1.000
    N5225    N        0.92357    0.20214    0.46417    1.000
    N5226    N        0.91502    0.14000    0.42936    1.000
    N5227    N        0.86921    0.17271    0.39443    1.000
    N5228    N        0.89834    0.05640    0.51186    1.000
    Si5229   Si       0.91645    0.08879    0.53613    1.000
    Si5230   Si       0.88392    0.02535    0.53934    1.000
    N5231    N        0.87836    0.10209    0.55251    1.000
    N5232    N        0.90487    0.11473    0.61865    1.000
    Si5233   Si       0.87148    0.12034    0.59263    1.000
    N5234    N        0.91040    0.00900    0.57016    1.000
    N5235    N        0.89956    0.17532    0.52418    1.000
    Si5236   Si       0.89526    0.24040    0.58996    1.000
    Si5237   Si       0.88876    0.25115    0.51920    1.000
    N5238    N        0.86909    0.16502    0.58570    1.000
    N5239    N        0.87239    0.23070    0.55462    1.000
    N5240    N        0.91299    0.01845    0.68958    1.000
    Si5241   Si       0.89064    0.05474    0.68860    1.000
    N5242    N        0.91175    0.09030    0.67866    1.000
    N5243    N        0.89855    0.12756    0.73722    1.000
    N5244    N        0.87461    0.06034    0.72846    1.000
    Si5245   Si       0.91157    0.13400    0.65809    1.000
    N5246    N        0.91806    0.17373    0.63334    1.000
    N5247    N        0.88012    0.15701    0.68080    1.000
    Si5248   Si       0.88660    0.16825    0.72331    1.000
    N5249    N        0.91920    0.19624    0.72781    1.000
    Si5250   Si       0.92077    0.23678    0.71421    1.000
    N5251    N        0.87556    0.22258    0.62531    1.000
    Si5252   Si       0.87370    0.17957    0.62979    1.000
    N5253    N        0.89656    0.25385    0.68200    1.000
    Si5254   Si       0.91412    0.05489    0.80453    1.000
    N5255    N        0.91254    0.05573    0.84832    1.000
    N5256    N        0.88135    0.03180    0.79003    1.000
    N5257    N        0.91936    0.09648    0.79264    1.000
    N5258    N        0.91342    0.12725    0.85246    1.000
    Si5259   Si       0.93252    0.09062    0.86750    1.000
    Si5260   Si       0.93324    0.10747    0.75377    1.000
    Si5261   Si       0.90840    0.13474    0.80998    1.000
    Si5262   Si       0.91037    0.20513    0.81931    1.000
    N5263    N        0.92645    0.17211    0.79538    1.000
    N5264    N        0.92900    0.24508    0.80575    1.000
    N5265    N        0.93162    0.20431    0.85911    1.000
    Si5266   Si       0.89888    0.03963    0.88623    1.000
    N5267    N        0.90129    0.04413    0.96247    1.000
    Si5268   Si       0.90207    0.08403    0.94489    1.000
    N5269    N        0.91686    0.07639    0.90504    1.000
    N5270    N        0.92611    0.11237    0.96474    1.000
    Si5271   Si       0.92548    0.01068    0.94430    1.000
    Si5272   Si       0.87359    0.03303    0.99361    1.000
    N5273    N        0.89779    0.25195    0.98198    1.000
    N5274    N        0.90468    0.18409    0.96898    1.000
    N5275    N        0.88957    0.22615    0.91157    1.000
    Si5276   Si       0.90106    0.19051    0.88897    1.000
    Si5277   Si       0.91180    0.22550    0.95027    1.000
    Si5278   Si       0.91293    0.30194    0.05739    1.000
    N5279    N        0.88614    0.26773    0.04797    1.000
    N5280    N        0.87770    0.32629    0.05872    1.000
    N5281    N        0.91643    0.38074    0.10567    1.000
    Si5282   Si       0.89618    0.39236    0.02278    1.000
    N5283    N        0.91267    0.46792    0.10098    1.000
    N5284    N        0.90552    0.43346    0.01460    1.000
    Si5285   Si       0.92030    0.50217    0.07430    1.000
    Si5286   Si       0.87563    0.39304    0.09739    1.000
    Si5287   Si       0.87172    0.46144    0.00273    1.000
    N5288    N        0.88113    0.31139    0.12781    1.000
    N5289    N        0.92143    0.34784    0.23311    1.000
    Si5290   Si       0.88894    0.28346    0.16152    1.000
    Si5291   Si       0.88683    0.32183    0.23570    1.000
    Si5292   Si       0.92486    0.32231    0.12852    1.000
    Si5293   Si       0.92936    0.38995    0.14673    1.000
    Si5294   Si       0.87375    0.46653    0.12008    1.000
    N5295    N        0.87894    0.48845    0.15681    1.000
    Si5296   Si       0.91298    0.38978    0.22390    1.000
    N5297    N        0.90302    0.39695    0.18060    1.000
    N5298    N        0.90236    0.34886    0.33597    1.000
    Si5299   Si       0.89146    0.30786    0.35143    1.000
    Si5300   Si       0.91031    0.27723    0.28476    1.000
    N5301    N        0.91876    0.28628    0.32479    1.000
    N5302    N        0.87546    0.29961    0.27306    1.000
    Si5303   Si       0.87933    0.38489    0.32964    1.000
    N5304    N        0.91100    0.40344    0.30689    1.000
    Si5305   Si       0.91080    0.43567    0.27509    1.000
    N5306    N        0.87341    0.46295    0.27517    1.000
    N5307    N        0.87403    0.40417    0.36775    1.000
    N5308    N        0.88230    0.40661    0.24993    1.000
    N5309    N        0.92038    0.29577    0.38353    1.000
    Si5310   Si       0.90908    0.27087    0.41723    1.000
    N5311    N        0.88354    0.35697    0.47167    1.000
    Si5312   Si       0.90306    0.36026    0.43240    1.000
    N5313    N        0.87287    0.34578    0.40492    1.000
    N5314    N        0.91248    0.40130    0.42323    1.000
    Si5315   Si       0.91087    0.42411    0.38531    1.000
    N5316    N        0.88956    0.44425    0.47036    1.000
    Si5317   Si       0.92624    0.42901    0.45492    1.000
    N5318    N        0.89642    0.46650    0.37828    1.000
    N5319    N        0.89477    0.34455    0.54307    1.000
    N5320    N        0.89522    0.28326    0.58278    1.000
    Si5321   Si       0.92263    0.30144    0.61063    1.000
    N5322    N        0.88266    0.29258    0.51427    1.000
    Si5323   Si       0.89983    0.33076    0.50162    1.000
    Si5324   Si       0.92424    0.36368    0.56678    1.000
    Si5325   Si       0.87327    0.30768    0.55427    1.000
    N5326    N        0.90588    0.38876    0.59554    1.000
    N5327    N        0.90496    0.41857    0.53673    1.000
    N5328    N        0.89697    0.46270    0.58515    1.000
    Si5329   Si       0.88435    0.42109    0.57480    1.000
    N5330    N        0.91673    0.50425    0.53794    1.000
    Si5331   Si       0.87562    0.43686    0.50926    1.000
    Si5332   Si       0.87714    0.49624    0.56191    1.000
    N5333    N        0.91642    0.36369    0.72862    1.000
    Si5334   Si       0.89841    0.29378    0.70310    1.000
    N5335    N        0.89529    0.32540    0.63484    1.000
    Si5336   Si       0.90025    0.36951    0.63589    1.000
    N5337    N        0.90689    0.27005    0.74164    1.000
    Si5338   Si       0.87430    0.43039    0.66254    1.000
    N5339    N        0.87828    0.43532    0.70607    1.000
    Si5340   Si       0.91544    0.47143    0.62219    1.000
    Si5341   Si       0.92127    0.43873    0.71251    1.000
    N5342    N        0.91672    0.43898    0.64802    1.000
    N5343    N        0.91154    0.50882    0.64716    1.000
    Si5344   Si       0.90694    0.27674    0.78387    1.000
    Si5345   Si       0.90640    0.35409    0.76868    1.000
    N5346    N        0.88236    0.37511    0.85430    1.000
    N5347    N        0.92341    0.31825    0.78464    1.000
    N5348    N        0.91755    0.31488    0.86587    1.000
    N5349    N        0.89512    0.43786    0.81517    1.000
    Si5350   Si       0.89393    0.41673    0.85593    1.000
    N5351    N        0.89056    0.49069    0.85563    1.000
    Si5352   Si       0.90255    0.48058    0.81393    1.000
    N5353    N        0.92667    0.44562    0.75613    1.000
    Si5354   Si       0.91143    0.29441    0.98327    1.000
    Si5355   Si       0.89186    0.34380    0.88092    1.000
    N5356    N        0.90843    0.35703    0.91975    1.000
    N5357    N        0.88086    0.37528    0.98574    1.000
    N5358    N        0.91866    0.48899    0.92528    1.000
    Si5359   Si       0.89248    0.38982    0.94697    1.000
    Si5360   Si       0.92173    0.50486    0.88396    1.000
    N5361    N        0.92539    0.41814    0.94426    1.000
    N5362    N        0.89017    0.50057    0.99269    1.000
    N5363    N        0.89134    0.60531    0.05528    1.000
    Si5364   Si       0.89109    0.53629    0.02158    1.000
    Si5365   Si       0.87834    0.60399    0.01342    1.000
    N5366    N        0.88259    0.51837    0.06015    1.000
    Si5367   Si       0.92708    0.61572    0.07760    1.000
    N5368    N        0.87956    0.75515    0.02877    1.000
    Si5369   Si       0.89509    0.68034    0.09657    1.000
    N5370    N        0.91456    0.68805    0.01743    1.000
    Si5371   Si       0.87903    0.71130    0.03042    1.000
    Si5372   Si       0.89397    0.59142    0.14514    1.000
    N5373    N        0.90142    0.62039    0.17484    1.000
    N5374    N        0.90565    0.54956    0.15526    1.000
    Si5375   Si       0.90007    0.51581    0.18304    1.000
    N5376    N        0.92818    0.59479    0.23646    1.000
    N5377    N        0.87380    0.63773    0.23133    1.000
    N5378    N        0.88657    0.74643    0.18560    1.000
    Si5379   Si       0.87409    0.72024    0.15200    1.000
    N5380    N        0.90765    0.70839    0.12722    1.000
    Si5381   Si       0.87070    0.73305    0.22561    1.000
    Si5382   Si       0.88152    0.54379    0.35212    1.000
    N5383    N        0.90711    0.62053    0.29368    1.000
    Si5384   Si       0.89187    0.60660    0.25478    1.000
    N5385    N        0.91439    0.56953    0.36385    1.000
    N5386    N        0.88916    0.51454    0.32105    1.000
    N5387    N        0.87585    0.63442    0.35501    1.000
    N5388    N        0.89021    0.68773    0.32257    1.000
    Si5389   Si       0.88891    0.71894    0.29176    1.000
    Si5390   Si       0.88601    0.67920    0.36451    1.000
    Si5391   Si       0.88040    0.64690    0.31192    1.000
    N5392    N        0.86930    0.74665    0.31874    1.000
    Si5393   Si       0.90859    0.61082    0.37126    1.000
    N5394    N        0.90521    0.61967    0.41368    1.000
    N5395    N        0.89395    0.50694    0.44348    1.000
    N5396    N        0.88534    0.55469    0.49352    1.000
    N5397    N        0.91680    0.68591    0.39564    1.000
    Si5398   Si       0.92517    0.72810    0.40403    1.000
    N5399    N        0.89052    0.75099    0.39609    1.000
    Si5400   Si       0.88927    0.65853    0.49062    1.000
    N5401    N        0.92511    0.66481    0.46541    1.000
    N5402    N        0.87946    0.52947    0.59112    1.000
    Si5403   Si       0.92434    0.53769    0.51082    1.000
    N5404    N        0.91713    0.63219    0.58604    1.000
    N5405    N        0.86880    0.59359    0.54814    1.000
    Si5406   Si       0.88194    0.63424    0.56225    1.000
    N5407    N        0.91792    0.71881    0.50720    1.000
    N5408    N        0.89608    0.66167    0.53338    1.000
    N5409    N        0.91409    0.74781    0.60068    1.000
    Si5410   Si       0.91392    0.69931    0.54441    1.000
    Si5411   Si       0.91521    0.61207    0.62448    1.000
    N5412    N        0.90231    0.59177    0.71150    1.000
    Si5413   Si       0.88282    0.59892    0.67296    1.000
    Si5414   Si       0.88222    0.53602    0.63397    1.000
    N5415    N        0.89334    0.57650    0.63815    1.000
    Si5416   Si       0.92317    0.62532    0.73481    1.000
    N5417    N        0.92119    0.52833    0.74303    1.000
    Si5418   Si       0.91558    0.67106    0.67531    1.000
    N5419    N        0.92702    0.66468    0.71742    1.000
    Si5420   Si       0.91417    0.74786    0.64542    1.000
    N5421    N        0.89704    0.63637    0.65586    1.000
    N5422    N        0.89829    0.70870    0.66300    1.000
    N5423    N        0.91304    0.59993    0.84858    1.000
    Si5424   Si       0.88706    0.53585    0.77051    1.000
    N5425    N        0.91422    0.56069    0.79426    1.000
    Si5426   Si       0.91956    0.60255    0.80570    1.000
    N5427    N        0.90536    0.62839    0.77331    1.000
    Si5428   Si       0.90894    0.69479    0.80648    1.000
    N5429    N        0.89666    0.73330    0.83017    1.000
    Si5430   Si       0.89651    0.56060    0.92577    1.000
    N5431    N        0.91351    0.54669    0.88987    1.000
    N5432    N        0.87340    0.60002    0.93523    1.000
    N5433    N        0.92990    0.55396    0.95283    1.000
    N5434    N        0.91499    0.61885    0.99102    1.000
    Si5435   Si       0.92199    0.50872    0.96413    1.000
    N5436    N        0.88125    0.74537    0.94704    1.000
    N5437    N        0.88549    0.67152    0.95363    1.000
    N5438    N        0.87372    0.64692    0.87303    1.000
    Si5439   Si       0.91527    0.66684    0.87866    1.000
    Si5440   Si       0.91702    0.66203    0.98271    1.000
    Si5441   Si       0.91344    0.74443    0.91890    1.000
    N5442    N        0.92507    0.70597    0.90005    1.000
    N5443    N        0.91798    0.81058    0.02971    1.000
    Si5444   Si       0.92095    0.76794    0.03714    1.000
    Si5445   Si       0.87978    0.82542    0.01549    1.000
    Si5446   Si       0.89202    0.87769    0.05949    1.000
    N5447    N        0.87686    0.87054    0.02042    1.000
    N5448    N        0.86906    0.86373    0.09078    1.000
    N5449    N        0.87707    0.97519    0.08812    1.000
    N5450    N        0.90280    0.91948    0.06439    1.000
    Si5451   Si       0.91760    0.95182    0.09030    1.000
    Si5452   Si       0.88941    0.84787    0.12664    1.000
    N5453    N        0.88581    0.85143    0.23289    1.000
    Si5454   Si       0.92090    0.76957    0.18456    1.000
    N5455    N        0.89049    0.88116    0.15309    1.000
    Si5456   Si       0.92713    0.83994    0.22107    1.000
    N5457    N        0.93091    0.81478    0.18702    1.000
    N5458    N        0.92425    0.98065    0.19140    1.000
    N5459    N        0.90910    0.91761    0.20622    1.000
    Si5460   Si       0.88514    0.98725    0.17775    1.000
    Si5461   Si       0.90307    0.91985    0.16180    1.000
    N5462    N        0.93040    0.93294    0.12925    1.000
    Si5463   Si       0.88166    0.89820    0.23825    1.000
    Si5464   Si       0.89060    0.78556    0.32820    1.000
    Si5465   Si       0.88378    0.80483    0.25509    1.000
    N5466    N        0.92754    0.81028    0.25652    1.000
    N5467    N        0.88965    0.76146    0.25176    1.000
    N5468    N        0.87498    0.81211    0.29663    1.000
    N5469    N        0.87176    0.80649    0.36209    1.000
    Si5470   Si       0.92770    0.99586    0.27912    1.000
    N5471    N        0.91180    0.89094    0.34794    1.000
    N5472    N        0.90214    0.89236    0.28012    1.000
    N5473    N        0.88435    0.99672    0.28662    1.000
    Si5474   Si       0.87974    0.89684    0.31881    1.000
    Si5475   Si       0.88891    0.85992    0.43551    1.000
    N5476    N        0.89777    0.81912    0.44698    1.000
    N5477    N        0.87868    0.92451    0.39597    1.000
    Si5478   Si       0.88344    0.98674    0.47373    1.000
    N5479    N        0.92374    0.88407    0.42788    1.000
    Si5480   Si       0.91624    0.90543    0.38922    1.000
    N5481    N        0.92653    0.98402    0.47574    1.000
    N5482    N        0.91285    0.99505    0.41327    1.000
    Si5483   Si       0.87953    0.96389    0.41032    1.000
    Si5484   Si       0.90865    0.80888    0.53824    1.000
    N5485    N        0.92738    0.79418    0.50100    1.000
    N5486    N        0.88668    0.77046    0.54228    1.000
    N5487    N        0.87668    0.83754    0.53567    1.000
    Si5488   Si       0.87726    0.75893    0.58290    1.000
    Si5489   Si       0.90153    0.75923    0.50441    1.000
    Si5490   Si       0.89910    0.97254    0.59269    1.000
    N5491    N        0.91383    0.93872    0.52811    1.000
    N5492    N        0.91581    0.92962    0.60066    1.000
    N5493    N        0.87296    0.99201    0.51484    1.000
    Si5494   Si       0.87510    0.95342    0.53382    1.000
    N5495    N        0.91476    0.82668    0.71206    1.000
    Si5496   Si       0.89069    0.85449    0.73567    1.000
    Si5497   Si       0.88900    0.79778    0.68739    1.000
    N5498    N        0.92595    0.78401    0.66715    1.000
    N5499    N        0.91034    0.89373    0.73350    1.000
    Si5500   Si       0.89662    0.89485    0.62068    1.000
    N5501    N        0.89186    0.95260    0.70345    1.000
    N5502    N        0.88527    0.89667    0.66280    1.000
    N5503    N        0.89496    0.99188    0.63069    1.000
    Si5504   Si       0.91497    0.98640    0.71997    1.000
    Si5505   Si       0.90804    0.91409    0.69448    1.000
    Si5506   Si       0.87967    0.78285    0.76231    1.000
    N5507    N        0.88418    0.82737    0.77089    1.000
    Si5508   Si       0.90189    0.83856    0.86133    1.000
    N5509    N        0.91468    0.81014    0.83083    1.000
    N5510    N        0.92111    0.77669    0.77257    1.000
    Si5511   Si       0.92176    0.76642    0.84279    1.000
    N5512    N        0.91653    0.97951    0.76192    1.000
    N5513    N        0.91493    0.91074    0.80958    1.000
    Si5514   Si       0.89253    0.98816    0.79648    1.000
    N5515    N        0.92050    0.98789    0.82994    1.000
    Si5516   Si       0.87110    0.91604    0.81256    1.000
    Si5517   Si       0.87932    0.84176    0.94127    1.000
    N5518    N        0.92452    0.77284    0.88592    1.000
    N5519    N        0.88258    0.82635    0.90186    1.000
    N5520    N        0.90200    0.87500    0.95918    1.000
    N5521    N        0.87845    0.80976    0.97262    1.000
    N5522    N        0.91250    0.97582    0.96510    1.000
    N5523    N        0.92347    0.00667    0.90099    1.000
    Si5524   Si       0.87069    0.96285    0.95881    1.000
    N5525    N        0.96869    0.10626    0.06847    1.000
    N5526    N        0.94751    0.05384    0.01795    1.000
    Si5527   Si       0.94392    0.09518    0.00122    1.000
    Si5528   Si       0.97251    0.02392    0.99948    1.000
    N5529    N        0.97290    0.24743    0.10073    1.000
    Si5530   Si       0.94782    0.21729    0.07872    1.000
    N5531    N        0.95792    0.17501    0.08783    1.000
    N5532    N        0.94210    0.22368    0.03756    1.000
    Si5533   Si       0.98482    0.14763    0.06832    1.000
    Si5534   Si       0.93241    0.15462    0.11810    1.000
    Si5535   Si       0.94648    0.01826    0.18464    1.000
    N5536    N        0.98002    0.02376    0.21105    1.000
    N5537    N        0.96066    0.02564    0.14446    1.000
    N5538    N        0.97397    0.10715    0.19718    1.000
    Si5539   Si       0.95980    0.05598    0.23238    1.000
    Si5540   Si       0.97895    0.11455    0.23965    1.000
    Si5541   Si       0.94358    0.18844    0.24520    1.000
    N5542    N        0.96117    0.13817    0.14480    1.000
    N5543    N        0.94650    0.22564    0.15831    1.000
    Si5544   Si       0.94283    0.13478    0.18369    1.000
    N5545    N        0.96223    0.22441    0.23273    1.000
    N5546    N        0.94559    0.17398    0.20296    1.000
    Si5547   Si       0.97019    0.21052    0.19231    1.000
    N5548    N        0.96124    0.05975    0.32660    1.000
    Si5549   Si       0.96693    0.08695    0.36013    1.000
    Si5550   Si       0.97623    0.02012    0.33208    1.000
    N5551    N        0.98252    0.12667    0.34997    1.000
    N5552    N        0.93823    0.03722    0.26833    1.000
    N5553    N        0.99377    0.07493    0.25475    1.000
    Si5554   Si       0.93321    0.07193    0.29635    1.000
    N5555    N        0.96471    0.15108    0.25866    1.000
    Si5556   Si       0.95343    0.14763    0.32538    1.000
    N5557    N        0.95681    0.23254    0.35515    1.000
    N5558    N        0.98020    0.18123    0.31328    1.000
    N5559    N        0.98541    0.24685    0.29679    1.000
    Si5560   Si       0.99082    0.21886    0.33168    1.000
    N5561    N        0.92996    0.08892    0.38153    1.000
    Si5562   Si       0.93029    0.10026    0.42331    1.000
    N5563    N        0.96436    0.09580    0.45209    1.000
    N5564    N        0.97432    0.02892    0.43812    1.000
    Si5565   Si       0.96925    0.12101    0.48678    1.000
    Si5566   Si       0.94227    0.17099    0.44092    1.000
    N5567    N        0.96171    0.18860    0.40684    1.000
    Si5568   Si       0.93365    0.20565    0.37823    1.000
    Si5569   Si       0.94412    0.23924    0.47408    1.000
    N5570    N        0.97439    0.15943    0.46949    1.000
    N5571    N        0.98742    0.23079    0.47474    1.000
    Si5572   Si       0.94327    0.03407    0.58685    1.000
    Si5573   Si       0.94049    0.10970    0.59513    1.000
    N5574    N        0.93900    0.07521    0.56998    1.000
    N5575    N        0.93648    0.11952    0.51387    1.000
    N5576    N        0.97557    0.11142    0.61990    1.000
    N5577    N        0.93346    0.21728    0.58651    1.000
    Si5578   Si       0.95645    0.22712    0.54936    1.000
    N5579    N        0.97134    0.19058    0.53028    1.000
    Si5580   Si       0.94756    0.18021    0.60463    1.000
    N5581    N        0.94363    0.14794    0.57430    1.000
    Si5582   Si       0.93898    0.15955    0.53360    1.000
    N5583    N        0.98749    0.25243    0.56683    1.000
    N5584    N        0.93249    0.24391    0.51716    1.000
    N5585    N        0.95591    0.07562    0.73278    1.000
    N5586    N        0.94572    0.04505    0.62903    1.000
    Si5587   Si       0.95275    0.09426    0.69471    1.000
    Si5588   Si       0.98242    0.07003    0.63350    1.000
    N5589    N        0.98760    0.07716    0.67620    1.000
    Si5590   Si       0.98460    0.14307    0.64806    1.000
    N5591    N        0.98569    0.18098    0.62517    1.000
    N5592    N        0.95524    0.13747    0.67958    1.000
    N5593    N        0.96012    0.24679    0.70036    1.000
    N5594    N        0.95258    0.03745    0.78972    1.000
    Si5595   Si       0.98166    0.05328    0.75953    1.000
    N5596    N        0.97473    0.08782    0.86246    1.000
    Si5597   Si       0.99231    0.04606    0.86179    1.000
    Si5598   Si       0.94665    0.17856    0.75584    1.000
    Si5599   Si       0.95759    0.23734    0.83841    1.000
    N5600    N        0.98174    0.20568    0.75319    1.000
    N5601    N        0.96352    0.13783    0.75496    1.000
    N5602    N        0.98952    0.21491    0.82021    1.000
    N5603    N        0.96537    0.02161    0.95920    1.000
    N5604    N        0.98709    0.10627    0.99267    1.000
    N5605    N        0.93101    0.16719    0.91182    1.000
    Si5606   Si       0.93395    0.15474    0.95315    1.000
    Si5607   Si       0.96150    0.17966    0.88119    1.000
    N5608    N        0.98413    0.20951    0.90485    1.000
    N5609    N        0.95260    0.23365    0.95719    1.000
    N5610    N        0.97413    0.16611    0.96375    1.000
    Si5611   Si       0.98349    0.20643    0.94930    1.000
    Si5612   Si       0.95455    0.34467    0.01276    1.000
    N5613    N        0.94119    0.31175    0.08937    1.000
    Si5614   Si       0.98483    0.31776    0.09457    1.000
    N5615    N        0.98406    0.36085    0.08973    1.000
    N5616    N        0.93170    0.37188    0.03942    1.000
    N5617    N        0.93124    0.30824    0.01860    1.000
    Si5618   Si       0.94990    0.38276    0.07583    1.000
    N5619    N        0.94277    0.48417    0.04238    1.000
    Si5620   Si       0.94501    0.44114    0.03057    1.000
    N5621    N        0.95910    0.42528    0.06936    1.000
    Si5622   Si       0.94935    0.44633    0.10674    1.000
    Si5623   Si       0.97595    0.50032    0.02025    1.000
    N5624    N        0.98269    0.47263    0.10518    1.000
    N5625    N        0.97228    0.42530    0.99532    1.000
    N5626    N        0.97448    0.31289    0.20955    1.000
    N5627    N        0.94672    0.35138    0.15406    1.000
    Si5628   Si       0.98040    0.32936    0.16959    1.000
    N5629    N        0.93157    0.28747    0.15446    1.000
    Si5630   Si       0.96596    0.26151    0.14462    1.000
    N5631    N        0.94188    0.41894    0.24251    1.000
    Si5632   Si       0.97954    0.43319    0.23015    1.000
    N5633    N        0.96057    0.42082    0.13907    1.000
    N5634    N        0.93175    0.50543    0.20909    1.000
    N5635    N        0.95759    0.34964    0.28962    1.000
    Si5636   Si       0.93968    0.37227    0.32310    1.000
    Si5637   Si       0.94850    0.27547    0.35281    1.000
    N5638    N        0.95977    0.36393    0.36414    1.000
    N5639    N        0.94240    0.28804    0.25908    1.000
    Si5640   Si       0.97546    0.25763    0.25515    1.000
    Si5641   Si       0.95820    0.32988    0.24888    1.000
    Si5642   Si       0.97846    0.44333    0.29933    1.000
    N5643    N        0.97446    0.40288    0.31841    1.000
    Si5644   Si       0.98283    0.40054    0.36039    1.000
    N5645    N        0.94082    0.46637    0.29275    1.000
    Si5646   Si       0.92946    0.50789    0.30652    1.000
    N5647    N        0.97983    0.29969    0.37052    1.000
    Si5648   Si       0.95604    0.30913    0.45556    1.000
    Si5649   Si       0.95051    0.32887    0.38691    1.000
    N5650    N        0.93996    0.33890    0.42785    1.000
    N5651    N        0.93831    0.27153    0.44785    1.000
    N5652    N        0.94251    0.32470    0.49209    1.000
    N5653    N        0.94777    0.46400    0.44089    1.000
    Si5654   Si       0.97482    0.44574    0.41197    1.000
    N5655    N        0.95448    0.42926    0.37792    1.000
    N5656    N        0.95257    0.41086    0.48302    1.000
    N5657    N        0.94505    0.33305    0.59027    1.000
    Si5658   Si       0.97512    0.34595    0.51272    1.000
    N5659    N        0.95834    0.37430    0.54021    1.000
    Si5660   Si       0.98653    0.33062    0.58193    1.000
    N5661    N        0.96699    0.45008    0.53942    1.000
    Si5662   Si       0.94785    0.41391    0.52502    1.000
    N5663    N        0.95522    0.47685    0.60197    1.000
    Si5664   Si       0.93920    0.47480    0.56094    1.000
    N5665    N        0.95341    0.27686    0.62940    1.000
    Si5666   Si       0.94515    0.35565    0.69747    1.000
    Si5667   Si       0.96320    0.28270    0.67366    1.000
    N5668    N        0.93493    0.31190    0.68921    1.000
    N5669    N        0.93515    0.37637    0.65910    1.000
    N5670    N        0.98609    0.35926    0.70749    1.000
    N5671    N        0.98860    0.42604    0.63298    1.000
    Si5672   Si       0.98332    0.46778    0.70523    1.000
    N5673    N        0.98331    0.48999    0.66537    1.000
    Si5674   Si       0.95307    0.41558    0.65607    1.000
    N5675    N        0.93736    0.47936    0.70540    1.000
    N5676    N        0.96375    0.42159    0.69946    1.000
    Si5677   Si       0.98978    0.46825    0.62720    1.000
    Si5678   Si       0.94490    0.51029    0.67501    1.000
    Si5679   Si       0.95641    0.34314    0.79928    1.000
    N5680    N        0.97839    0.33185    0.83527    1.000
    N5681    N        0.96962    0.26893    0.86350    1.000
    N5682    N        0.93481    0.38030    0.79221    1.000
    Si5683   Si       0.96229    0.31139    0.87071    1.000
    N5684    N        0.96825    0.44038    0.81401    1.000
    Si5685   Si       0.96628    0.44759    0.85706    1.000
    Si5686   Si       0.93885    0.48740    0.75106    1.000
    N5687    N        0.93915    0.49719    0.79530    1.000
    N5688    N        0.98197    0.48300    0.74794    1.000
    Si5689   Si       0.93153    0.42215    0.79461    1.000
    N5690    N        0.95928    0.48849    0.87201    1.000
    N5691    N        0.97452    0.33555    0.90385    1.000
    N5692    N        0.95029    0.36095    0.97247    1.000
    Si5693   Si       0.94342    0.33814    0.93598    1.000
    Si5694   Si       0.96961    0.27313    0.95361    1.000
    N5695    N        0.93609    0.29807    0.94748    1.000
    N5696    N        0.97714    0.45442    0.92529    1.000
    Si5697   Si       0.96105    0.40091    0.96014    1.000
    N5698    N        0.96121    0.49902    0.98001    1.000
    Si5699   Si       0.93619    0.45008    0.91653    1.000
    N5700    N        0.93091    0.42982    0.87439    1.000
    N5701    N        0.96308    0.60080    0.05620    1.000
    Si5702   Si       0.95739    0.55753    0.05313    1.000
    N5703    N        0.94253    0.53528    0.08803    1.000
    N5704    N        0.93005    0.59385    0.11734    1.000
    N5705    N        0.92879    0.55532    0.01964    1.000
    N5706    N        0.97456    0.69942    0.04574    1.000
    Si5707   Si       0.97326    0.67224    0.09933    1.000
    N5708    N        0.97838    0.71570    0.10948    1.000
    Si5709   Si       0.95542    0.70615    0.00663    1.000
    N5710    N        0.94651    0.74992    0.00750    1.000
    Si5711   Si       0.97724    0.73565    0.06949    1.000
    Si5712   Si       0.93916    0.73598    0.11663    1.000
    N5713    N        0.93740    0.75098    0.07351    1.000
    N5714    N        0.93291    0.65893    0.08684    1.000
    Si5715   Si       0.93846    0.61725    0.20129    1.000
    N5716    N        0.96367    0.59206    0.17590    1.000
    Si5717   Si       0.96805    0.61041    0.13706    1.000
    N5718    N        0.97442    0.53102    0.14964    1.000
    Si5719   Si       0.94090    0.54981    0.12978    1.000
    N5720    N        0.98078    0.54811    0.22479    1.000
    Si5721   Si       0.96305    0.50903    0.23883    1.000
    N5722    N        0.97225    0.65202    0.13871    1.000
    N5723    N        0.94786    0.75541    0.21585    1.000
    N5724    N        0.96318    0.65145    0.21422    1.000
    Si5725   Si       0.98377    0.73153    0.21902    1.000
    N5726    N        0.97400    0.59509    0.28613    1.000
    N5727    N        0.96085    0.52526    0.33394    1.000
    Si5728   Si       0.95610    0.56762    0.25602    1.000
    Si5729   Si       0.94822    0.62449    0.30604    1.000
    N5730    N        0.93545    0.53045    0.26978    1.000
    Si5731   Si       0.95406    0.55165    0.36989    1.000
    N5732    N        0.94208    0.62910    0.34969    1.000
    N5733    N        0.98427    0.58569    0.36879    1.000
    N5734    N        0.98527    0.70350    0.25202    1.000
    Si5735   Si       0.96727    0.70613    0.29239    1.000
    N5736    N        0.96402    0.66231    0.29165    1.000
    N5737    N        0.98044    0.72142    0.32987    1.000
    Si5738   Si       0.98322    0.66044    0.24991    1.000
    N5739    N        0.93137    0.72573    0.28151    1.000
    Si5740   Si       0.97734    0.63130    0.37592    1.000
    N5741    N        0.95188    0.52664    0.47682    1.000
    N5742    N        0.94919    0.52746    0.40460    1.000
    N5743    N        0.98646    0.59415    0.47989    1.000
    Si5744   Si       0.93692    0.50621    0.44020    1.000
    N5745    N        0.94508    0.72770    0.44370    1.000
    Si5746   Si       0.94637    0.70095    0.47796    1.000
    N5747    N        0.96975    0.63841    0.41859    1.000
    Si5748   Si       0.93089    0.65455    0.42366    1.000
    N5749    N        0.95829    0.75158    0.38712    1.000
    Si5750   Si       0.97468    0.75534    0.42942    1.000
    N5751    N        0.98537    0.70595    0.49843    1.000
    N5752    N        0.95028    0.56833    0.52740    1.000
    Si5753   Si       0.98083    0.59957    0.52331    1.000
    N5754    N        0.96846    0.63974    0.53455    1.000
    Si5755   Si       0.95294    0.73068    0.59497    1.000
    N5756    N        0.94589    0.69486    0.57227    1.000
    Si5757   Si       0.95292    0.65273    0.57613    1.000
    N5758    N        0.98118    0.75801    0.57743    1.000
    N5759    N        0.98706    0.64199    0.59915    1.000
    N5760    N        0.95371    0.60207    0.64241    1.000
    N5761    N        0.95493    0.54850    0.68793    1.000
    Si5762   Si       0.97827    0.57880    0.66793    1.000
    N5763    N        0.95906    0.59811    0.73834    1.000
    Si5764   Si       0.93543    0.56243    0.72278    1.000
    Si5765   Si       0.97972    0.63658    0.64199    1.000
    N5766    N        0.96683    0.72052    0.70784    1.000
    N5767    N        0.95918    0.66906    0.65932    1.000
    N5768    N        0.96296    0.73131    0.63875    1.000
    Si5769   Si       0.98046    0.70519    0.66848    1.000
    Si5770   Si       0.95781    0.68848    0.73618    1.000
    N5771    N        0.96197    0.61253    0.80544    1.000
    N5772    N        0.95853    0.54581    0.84207    1.000
    Si5773   Si       0.95262    0.53900    0.79995    1.000
    Si5774   Si       0.98603    0.59710    0.77206    1.000
    Si5775   Si       0.93899    0.57384    0.86917    1.000
    N5776    N        0.98892    0.55348    0.78095    1.000
    Si5777   Si       0.96592    0.65043    0.82454    1.000
    Si5778   Si       0.94911    0.74583    0.78307    1.000
    N5779    N        0.93795    0.70422    0.77352    1.000
    N5780    N        0.95938    0.75157    0.82565    1.000
    N5781    N        0.92988    0.67026    0.83559    1.000
    Si5782   Si       0.97255    0.56452    0.93671    1.000
    Si5783   Si       0.93615    0.58261    0.98615    1.000
    N5784    N        0.97714    0.58961    0.97248    1.000
    N5785    N        0.96522    0.58526    0.90143    1.000
    Si5786   Si       0.98057    0.62557    0.89969    1.000
    Si5787   Si       0.95327    0.68671    0.92575    1.000
    N5788    N        0.94486    0.64864    0.90541    1.000
    N5789    N        0.95250    0.68371    0.96801    1.000
    N5790    N        0.94967    0.75605    0.93959    1.000
    Si5791   Si       0.97438    0.75668    0.97573    1.000
    Si5792   Si       0.95951    0.85322    0.08994    1.000
    Si5793   Si       0.95323    0.83820    0.03131    1.000
    N5794    N        0.93692    0.86869    0.05683    1.000
    N5795    N        0.98307    0.82711    0.06130    1.000
    N5796    N        0.97939    0.88206    0.11624    1.000
    N5797    N        0.93016    0.83507    0.11709    1.000
    N5798    N        0.96281    0.93485    0.07389    1.000
    N5799    N        0.95601    0.99275    0.02438    1.000
    Si5800   Si       0.94211    0.91053    0.04433    1.000
    Si5801   Si       0.97134    0.97571    0.06096    1.000
    Si5802   Si       0.96941    0.92383    0.11451    1.000
    N5803    N        0.93805    0.91842    0.00291    1.000
    N5804    N        0.93949    0.99351    0.08633    1.000
    Si5805   Si       0.94958    0.81109    0.14654    1.000
    N5806    N        0.95405    0.86947    0.23951    1.000
    N5807    N        0.93960    0.76779    0.14458    1.000
    Si5808   Si       0.98834    0.89035    0.22353    1.000
    Si5809   Si       0.94103    0.94782    0.21667    1.000
    N5810    N        0.97842    0.92938    0.20421    1.000
    N5811    N        0.96102    0.84755    0.30672    1.000
    Si5812   Si       0.95007    0.80850    0.29202    1.000
    N5813    N        0.97727    0.77746    0.27360    1.000
    N5814    N        0.98143    0.87095    0.36429    1.000
    Si5815   Si       0.96441    0.76249    0.34406    1.000
    Si5816   Si       0.93485    0.76282    0.25737    1.000
    N5817    N        0.93294    0.78522    0.32286    1.000
    Si5818   Si       0.94598    0.88021    0.28094    1.000
    Si5819   Si       0.95542    0.89721    0.34290    1.000
    N5820    N        0.96124    0.91464    0.30438    1.000
    N5821    N        0.95344    0.98875    0.31346    1.000
    Si5822   Si       0.97250    0.95437    0.29029    1.000
    N5823    N        0.94705    0.96326    0.25622    1.000
    N5824    N        0.98353    0.99919    0.36999    1.000
    N5825    N        0.95479    0.85627    0.48360    1.000
    N5826    N        0.97099    0.79606    0.44349    1.000
    Si5827   Si       0.93911    0.81675    0.46636    1.000
    N5828    N        0.94931    0.93039    0.37712    1.000
    Si5829   Si       0.97958    0.95824    0.38392    1.000
    Si5830   Si       0.95706    0.89014    0.45766    1.000
    N5831    N        0.97168    0.92705    0.48358    1.000
    N5832    N        0.98040    0.96274    0.42774    1.000
    Si5833   Si       0.95030    0.99208    0.43864    1.000
    Si5834   Si       0.94759    0.85002    0.58943    1.000
    Si5835   Si       0.97371    0.85744    0.52441    1.000
    Si5836   Si       0.98076    0.80018    0.56891    1.000
    N5837    N        0.94512    0.87611    0.55476    1.000
    N5838    N        0.93726    0.81144    0.56914    1.000
    N5839    N        0.98775    0.83470    0.59806    1.000
    N5840    N        0.97848    0.99076    0.51306    1.000
    N5841    N        0.96992    0.94176    0.55055    1.000
    Si5842   Si       0.94514    0.96080    0.50713    1.000
    Si5843   Si       0.93452    0.91851    0.56113    1.000
    N5844    N        0.97855    0.00922    0.58633    1.000
    N5845    N        0.93302    0.86929    0.62509    1.000
    Si5846   Si       0.94888    0.81073    0.69162    1.000
    N5847    N        0.97203    0.84400    0.67447    1.000
    Si5848   Si       0.96388    0.88151    0.65414    1.000
    N5849    N        0.98486    0.79106    0.70443    1.000
    Si5850   Si       0.93025    0.00898    0.65061    1.000
    N5851    N        0.95882    0.97482    0.71610    1.000
    N5852    N        0.94986    0.91321    0.67720    1.000
    Si5853   Si       0.97027    0.95237    0.68139    1.000
    N5854    N        0.96451    0.98027    0.64741    1.000
    N5855    N        0.94282    0.85678    0.78081    1.000
    N5856    N        0.97748    0.81150    0.79581    1.000
    Si5857   Si       0.93113    0.81698    0.79130    1.000
    Si5858   Si       0.98588    0.85504    0.79057    1.000
    N5859    N        0.97916    0.89367    0.82205    1.000
    N5860    N        0.96344    0.92321    0.76114    1.000
    Si5861   Si       0.95841    0.96520    0.75770    1.000
    Si5862   Si       0.93986    0.90324    0.84330    1.000
    N5863    N        0.97885    0.97374    0.79374    1.000
    Si5864   Si       0.95770    0.00449    0.81504    1.000
    N5865    N        0.93825    0.93673    0.87029    1.000
    Si5866   Si       0.93916    0.98049    0.86832    1.000
    N5867    N        0.97657    0.00605    0.85364    1.000
    Si5868   Si       0.93125    0.89748    0.77190    1.000
    N5869    N        0.93327    0.86918    0.86970    1.000
    N5870    N        0.96142    0.82494    0.92421    1.000
    Si5871   Si       0.95963    0.86493    0.90508    1.000
    Si5872   Si       0.96168    0.78518    0.90757    1.000
    N5873    N        0.96007    0.85058    0.99114    1.000
    Si5874   Si       0.98518    0.82773    0.96337    1.000
    N5875    N        0.98059    0.95708    0.97121    1.000
    N5876    N        0.95896    0.89637    0.93619    1.000
    Si5877   Si       0.94001    0.88696    0.97312    1.000
    Si5878   Si       0.98025    0.93592    0.93293    1.000
    Si5879   Si       0.94209    0.96220    0.99306    1.000
