# CIF file generated by openbabel 3.1.1, see https://openbabel.org
data_I
_chemical_name_common '3.01-33.aims'
_cell_length_a 39.9434
_cell_length_b 39.9434
_cell_length_c 39.9434
_cell_angle_alpha 90
_cell_angle_beta 90
_cell_angle_gamma 90
loop_
    _atom_site_label
    _atom_site_type_symbol
    _atom_site_fract_x
    _atom_site_fract_y
    _atom_site_fract_z
    _atom_site_occupancy
    Si0      Si       0.99994    0.07711    0.07303    1.000
    N1       N        0.04028    0.08458    0.04848    1.000
    Si2      Si       0.03416    0.12767    0.05396    1.000
    N3       N        0.99265    0.11998    0.07012    1.000
    N4       N        0.99702    0.05630    0.10970    1.000
    N5       N        0.01932    0.03626    0.99888    1.000
    N6       N        0.03146    0.15112    0.01690    1.000
    Si7      Si       0.01260    0.23193    0.05479    1.000
    Si8      Si       0.02788    0.18638    0.09938    1.000
    N9       N        0.01511    0.22201    0.01129    1.000
    N10      N        0.99174    0.20228    0.07989    1.000
    Si11     Si       0.00518    0.18157    0.00317    1.000
    N12      N        0.99927    0.02190    0.17194    1.000
    N13      N        0.02112    0.10555    0.21880    1.000
    Si14     Si       0.00480    0.06049    0.15160    1.000
    Si15     Si       0.99994    0.02092    0.21642    1.000
    N16      N        0.04350    0.07582    0.15624    1.000
    N17      N        0.04683    0.02200    0.21789    1.000
    N18      N        0.99174    0.05364    0.24736    1.000
    N19      N        0.99785    0.15772    0.12655    1.000
    N20      N        0.01330    0.20428    0.18805    1.000
    Si21     Si       0.98966    0.21296    0.22252    1.000
    Si22     Si       0.03186    0.23114    0.15827    1.000
    N23      N        0.99291    0.24937    0.14422    1.000
    Si24     Si       0.01417    0.16442    0.16565    1.000
    N25      N        0.98931    0.25705    0.22605    1.000
    N26      N        0.00370    0.10584    0.29279    1.000
    Si27     Si       0.01887    0.08457    0.25721    1.000
    N28      N        0.03700    0.11353    0.35752    1.000
    Si29     Si       0.02813    0.13083    0.31873    1.000
    N30      N        0.03794    0.23916    0.30775    1.000
    N31      N        0.01467    0.17213    0.31640    1.000
    N32      N        0.99523    0.24324    0.35993    1.000
    Si33     Si       0.03828    0.19953    0.29348    1.000
    N34      N        0.01726    0.21083    0.25675    1.000
    Si35     Si       0.03619    0.25192    0.34963    1.000
    Si36     Si       0.01493    0.25402    0.26776    1.000
    N37      N        0.02498    0.06809    0.40930    1.000
    N38      N        0.00747    0.10591    0.46405    1.000
    Si39     Si       0.04147    0.09444    0.44257    1.000
    Si40     Si       0.00734    0.09333    0.37973    1.000
    Si41     Si       0.01095    0.02658    0.40952    1.000
    Si42     Si       0.98582    0.21962    0.39657    1.000
    Si43     Si       0.99625    0.20303    0.46685    1.000
    N44      N        0.01087    0.23105    0.43078    1.000
    Si45     Si       0.00119    0.02990    0.52830    1.000
    N46      N        0.00332    0.07135    0.53327    1.000
    Si47     Si       0.00810    0.10653    0.50712    1.000
    N48      N        0.03225    0.10277    0.58762    1.000
    Si49     Si       0.99889    0.07958    0.57741    1.000
    N50      N        0.03837    0.01598    0.50961    1.000
    N51      N        0.00404    0.05634    0.61735    1.000
    N52      N        0.04248    0.12892    0.52208    1.000
    Si53     Si       0.04405    0.13457    0.56463    1.000
    N54      N        0.01050    0.16127    0.57083    1.000
    N55      N        0.01732    0.19669    0.50423    1.000
    Si56     Si       0.00036    0.16044    0.61430    1.000
    N57      N        0.99681    0.25178    0.59723    1.000
    Si58     Si       0.99434    0.17102    0.53068    1.000
    Si59     Si       0.02608    0.09284    0.63024    1.000
    N60      N        0.03605    0.01873    0.72250    1.000
    N61      N        0.00798    0.08658    0.69922    1.000
    Si62     Si       0.00342    0.04558    0.71019    1.000
    N63      N        0.00064    0.12608    0.64270    1.000
    Si64     Si       0.00638    0.10339    0.74270    1.000
    Si65     Si       0.99055    0.02292    0.63776    1.000
    Si66     Si       0.02365    0.17169    0.72841    1.000
    N67      N        0.99839    0.22648    0.67167    1.000
    N68      N        0.03867    0.13309    0.74290    1.000
    N69      N        0.03723    0.17835    0.62896    1.000
    Si70     Si       0.03725    0.20741    0.66159    1.000
    N71      N        0.03243    0.10713    0.83721    1.000
    Si72     Si       0.02612    0.07344    0.80782    1.000
    N73      N        0.03005    0.07207    0.76342    1.000
    Si74     Si       0.99914    0.12217    0.86431    1.000
    N75      N        0.99831    0.01587    0.86067    1.000
    N76      N        0.04920    0.04003    0.82114    1.000
    Si77     Si       0.03723    0.00788    0.84591    1.000
    Si78     Si       0.01738    0.18872    0.84594    1.000
    N79      N        0.00643    0.22334    0.81896    1.000
    N80      N        0.01627    0.19537    0.76315    1.000
    Si81     Si       0.03996    0.22084    0.78908    1.000
    N82      N        0.00115    0.07715    0.94294    1.000
    Si83     Si       0.01507    0.03794    0.95722    1.000
    Si84     Si       0.03360    0.10330    0.92946    1.000
    N85      N        0.01165    0.13229    0.90582    1.000
    N86      N        0.02120    0.17632    0.96275    1.000
    N87      N        0.02890    0.19286    0.88840    1.000
    Si88     Si       0.03521    0.24838    0.98308    1.000
    Si89     Si       0.00738    0.17288    0.92148    1.000
    N90      N        0.03575    0.34312    0.04749    1.000
    N91      N        0.01076    0.27331    0.06521    1.000
    Si92     Si       0.99414    0.35319    0.02923    1.000
    Si93     Si       0.03908    0.29955    0.04479    1.000
    Si94     Si       0.00468    0.27605    0.11064    1.000
    N95      N        0.03929    0.28846    0.00245    1.000
    N96      N        0.99908    0.31762    0.12054    1.000
    Si97     Si       0.00102    0.49173    0.06081    1.000
    Si98     Si       0.99844    0.43436    0.01011    1.000
    N99      N        0.04064    0.49777    0.07585    1.000
    N100     N        0.03561    0.45629    0.00495    1.000
    Si101    Si       0.03053    0.49926    0.00258    1.000
    Si102    Si       0.01577    0.39877    0.11963    1.000
    N103     N        0.99253    0.39510    0.02742    1.000
    N104     N        0.00964    0.44012    0.12403    1.000
    Si105    Si       0.00891    0.33288    0.16147    1.000
    N106     N        0.00494    0.37594    0.15528    1.000
    N107     N        0.00009    0.38023    0.21985    1.000
    N108     N        0.04585    0.26690    0.12276    1.000
    Si109    Si       0.04462    0.48992    0.11962    1.000
    Si110    Si       0.99436    0.44724    0.23507    1.000
    Si111    Si       0.99023    0.46316    0.15587    1.000
    Si112    Si       0.03870    0.38704    0.23777    1.000
    N113     N        0.00015    0.44068    0.19314    1.000
    N114     N        0.01469    0.49860    0.15067    1.000
    Si115    Si       0.02876    0.32320    0.27589    1.000
    N116     N        0.02519    0.32745    0.31692    1.000
    N117     N        0.98882    0.32261    0.25939    1.000
    N118     N        0.04436    0.28531    0.26184    1.000
    N119     N        0.03427    0.36916    0.36961    1.000
    N120     N        0.02515    0.42663    0.32843    1.000
    N121     N        0.02625    0.42405    0.25688    1.000
    N122     N        0.99537    0.49836    0.35055    1.000
    Si123    Si       0.04213    0.50021    0.26136    1.000
    Si124    Si       0.04363    0.41150    0.36518    1.000
    N125     N        0.00187    0.48971    0.24919    1.000
    Si126    Si       0.99528    0.35922    0.39237    1.000
    N127     N        0.00837    0.33953    0.42817    1.000
    Si128    Si       0.04121    0.34642    0.45804    1.000
    N129     N        0.01784    0.33273    0.49241    1.000
    N130     N        0.03695    0.44841    0.39211    1.000
    N131     N        0.03655    0.38907    0.45588    1.000
    Si132    Si       0.98940    0.47686    0.46115    1.000
    Si133    Si       0.99901    0.46649    0.37988    1.000
    N134     N        0.03275    0.47796    0.45897    1.000
    Si135    Si       0.99153    0.39643    0.45228    1.000
    Si136    Si       0.01801    0.33866    0.53611    1.000
    N137     N        0.00598    0.30010    0.55441    1.000
    Si138    Si       0.02780    0.26843    0.57398    1.000
    N139     N        0.00759    0.46852    0.58491    1.000
    Si140    Si       0.01497    0.48982    0.54674    1.000
    Si141    Si       0.03536    0.48879    0.61550    1.000
    N142     N        0.00990    0.34841    0.71591    1.000
    N143     N        0.99727    0.28051    0.72849    1.000
    Si144    Si       0.00793    0.26583    0.69013    1.000
    Si145    Si       0.03916    0.28562    0.73949    1.000
    N146     N        0.99242    0.29436    0.66164    1.000
    Si147    Si       0.03944    0.37938    0.70568    1.000
    Si148    Si       0.98688    0.33002    0.68514    1.000
    N149     N        0.01555    0.41072    0.68475    1.000
    N150     N        0.03141    0.47368    0.70421    1.000
    Si151    Si       0.04419    0.44244    0.67745    1.000
    N152     N        0.02611    0.34361    0.79169    1.000
    Si153    Si       0.03100    0.31937    0.82628    1.000
    Si154    Si       0.99742    0.35247    0.75941    1.000
    N155     N        0.03516    0.34456    0.86337    1.000
    N156     N        0.99600    0.29653    0.83640    1.000
    N157     N        0.04347    0.26119    0.77367    1.000
    Si158    Si       0.04482    0.38728    0.84609    1.000
    N159     N        0.01605    0.41486    0.82743    1.000
    Si160    Si       0.03295    0.40681    0.78596    1.000
    N161     N        0.99449    0.39428    0.76619    1.000
    N162     N        0.99664    0.49224    0.84396    1.000
    Si163    Si       0.99186    0.45077    0.82996    1.000
    Si164    Si       0.03373    0.32155    0.90047    1.000
    N165     N        0.00571    0.26555    0.95517    1.000
    Si166    Si       0.01613    0.30667    0.96988    1.000
    N167     N        0.99243    0.30629    0.90299    1.000
    N168     N        0.04017    0.33190    0.94371    1.000
    N169     N        0.98991    0.33452    0.99103    1.000
    Si170    Si       0.00853    0.50159    0.92915    1.000
    Si171    Si       0.01195    0.42520    0.93786    1.000
    N172     N        0.02563    0.46067    0.91983    1.000
    N173     N        0.01674    0.63103    0.05948    1.000
    N174     N        0.99517    0.51506    0.02354    1.000
    N175     N        0.04975    0.56907    0.06338    1.000
    Si176    Si       0.02827    0.71235    0.09007    1.000
    N177     N        0.03866    0.72983    0.05141    1.000
    Si178    Si       0.00224    0.64808    0.09674    1.000
    N179     N        0.02853    0.68147    0.00068    1.000
    N180     N        0.02845    0.74411    0.11964    1.000
    N181     N        0.99054    0.69125    0.09686    1.000
    Si182    Si       0.99862    0.53752    0.16062    1.000
    N183     N        0.01873    0.55565    0.19411    1.000
    Si184    Si       0.99642    0.58299    0.21909    1.000
    N185     N        0.99450    0.56742    0.12842    1.000
    N186     N        0.00262    0.62107    0.24351    1.000
    Si187    Si       0.04712    0.62227    0.24234    1.000
    N188     N        0.02374    0.63135    0.13070    1.000
    N189     N        0.04225    0.69053    0.16305    1.000
    N190     N        0.00161    0.75316    0.24443    1.000
    Si191    Si       0.02033    0.72623    0.15776    1.000
    N192     N        0.04646    0.69775    0.23929    1.000
    N193     N        0.02596    0.53227    0.28922    1.000
    N194     N        0.02198    0.57059    0.35032    1.000
    Si195    Si       0.02432    0.52978    0.33417    1.000
    Si196    Si       0.99515    0.60412    0.33795    1.000
    Si197    Si       0.98570    0.52399    0.27152    1.000
    N198     N        0.00729    0.63925    0.31429    1.000
    Si199    Si       0.01764    0.68090    0.32034    1.000
    N200     N        0.00072    0.68872    0.36011    1.000
    N201     N        0.99707    0.70302    0.29042    1.000
    Si202    Si       0.00397    0.70795    0.24595    1.000
    N203     N        0.03386    0.59026    0.42645    1.000
    N204     N        0.03127    0.54222    0.48525    1.000
    Si205    Si       0.00630    0.57553    0.39489    1.000
    Si206    Si       0.98998    0.54586    0.46504    1.000
    Si207    Si       0.99455    0.65952    0.45565    1.000
    N208     N        0.02625    0.66374    0.42371    1.000
    N209     N        0.02546    0.72950    0.41234    1.000
    N210     N        0.99965    0.63661    0.49119    1.000
    Si211    Si       0.03173    0.69202    0.39183    1.000
    N212     N        0.01749    0.59858    0.53890    1.000
    N213     N        0.01107    0.53327    0.55001    1.000
    Si214    Si       0.00377    0.55695    0.58528    1.000
    N215     N        0.03186    0.62640    0.60747    1.000
    Si216    Si       0.03716    0.56304    0.52473    1.000
    N217     N        0.04257    0.56216    0.60216    1.000
    Si218    Si       0.03937    0.63200    0.51440    1.000
    Si219    Si       0.98713    0.62732    0.60839    1.000
    N220     N        0.03555    0.72730    0.52715    1.000
    N221     N        0.02778    0.71509    0.59436    1.000
    Si222    Si       0.00629    0.68907    0.56696    1.000
    N223     N        0.03593    0.66263    0.54978    1.000
    Si224    Si       0.03036    0.74766    0.56252    1.000
    Si225    Si       0.99888    0.60189    0.67887    1.000
    N226     N        0.04108    0.60276    0.66852    1.000
    N227     N        0.03346    0.51413    0.65255    1.000
    Si228    Si       0.99254    0.52811    0.65605    1.000
    N229     N        0.99149    0.62083    0.71709    1.000
    N230     N        0.98868    0.69102    0.72098    1.000
    N231     N        0.04294    0.71653    0.66644    1.000
    Si232    Si       0.01323    0.65769    0.72652    1.000
    Si233    Si       0.00495    0.72757    0.74043    1.000
    Si234    Si       0.01322    0.74723    0.67102    1.000
    N235     N        0.04527    0.71666    0.74610    1.000
    N236     N        0.02339    0.61445    0.81947    1.000
    Si237    Si       0.01875    0.58413    0.84948    1.000
    N238     N        0.01901    0.57693    0.76502    1.000
    N239     N        0.03984    0.54751    0.83420    1.000
    Si240    Si       0.02284    0.53356    0.75572    1.000
    Si241    Si       0.03342    0.51227    0.85842    1.000
    Si242    Si       0.05028    0.61293    0.78313    1.000
    N243     N        0.02369    0.64425    0.76734    1.000
    Si244    Si       0.99912    0.64709    0.80254    1.000
    N245     N        0.04524    0.73691    0.81570    1.000
    N246     N        0.03175    0.51740    0.96351    1.000
    N247     N        0.04012    0.59368    0.88533    1.000
    N248     N        0.02877    0.52695    0.89925    1.000
    N249     N        0.98936    0.61834    0.99363    1.000
    Si250    Si       0.04647    0.75573    0.96640    1.000
    Si251    Si       0.99964    0.70546    0.97868    1.000
    N252     N        0.03238    0.66430    0.88129    1.000
    Si253    Si       0.03712    0.73683    0.90964    1.000
    Si254    Si       0.02632    0.63941    0.98299    1.000
    N255     N        0.04744    0.63310    0.94648    1.000
    N256     N        0.02021    0.72494    0.94798    1.000
    N257     N        0.02144    0.85717    0.07971    1.000
    N258     N        0.03444    0.85479    0.01238    1.000
    N259     N        0.00135    0.80237    0.04150    1.000
    Si260    Si       0.01192    0.81647    0.00201    1.000
    Si261    Si       0.01824    0.76210    0.03132    1.000
    N262     N        0.04204    0.78620    0.99651    1.000
    Si263    Si       0.00747    0.88880    0.10615    1.000
    N264     N        0.01640    0.99049    0.10476    1.000
    Si265    Si       0.00444    0.96006    0.01181    1.000
    Si266    Si       0.02431    0.95381    0.08221    1.000
    N267     N        0.03401    0.96468    0.04214    1.000
    N268     N        0.99681    0.92248    0.08141    1.000
    N269     N        0.99086    0.91574    0.00936    1.000
    Si270    Si       0.04392    0.78061    0.13938    1.000
    Si271    Si       0.03939    0.83381    0.18545    1.000
    N272     N        0.00980    0.85989    0.19939    1.000
    N273     N        0.02101    0.81864    0.14806    1.000
    Si274    Si       0.03754    0.76499    0.22249    1.000
    N275     N        0.04697    0.80897    0.22326    1.000
    N276     N        0.04000    0.76023    0.17920    1.000
    Si277    Si       0.00791    0.98609    0.14742    1.000
    N278     N        0.00245    0.97814    0.23318    1.000
    Si279    Si       0.01480    0.88297    0.23531    1.000
    Si280    Si       0.99570    0.88654    0.16878    1.000
    N281     N        0.03643    0.96410    0.17257    1.000
    N282     N        0.02876    0.89920    0.14332    1.000
    N283     N        0.03933    0.91774    0.22317    1.000
    Si284    Si       0.01272    0.94657    0.20550    1.000
    Si285    Si       0.03340    0.82355    0.26477    1.000
    N286     N        0.01298    0.80958    0.35149    1.000
    N287     N        0.04170    0.86623    0.26570    1.000
    N288     N        0.98974    0.82095    0.27239    1.000
    N289     N        0.00595    0.96127    0.35382    1.000
    Si290    Si       0.00411    0.92220    0.33235    1.000
    Si291    Si       0.01071    0.98175    0.27748    1.000
    N292     N        0.00383    0.94249    0.29174    1.000
    N293     N        0.04223    0.89993    0.33138    1.000
    Si294    Si       0.04490    0.96683    0.36989    1.000
    Si295    Si       0.03456    0.86690    0.44305    1.000
    N296     N        0.00942    0.83747    0.46286    1.000
    Si297    Si       0.02405    0.79580    0.45403    1.000
    Si298    Si       0.04138    0.82644    0.38268    1.000
    N299     N        0.04293    0.79610    0.41589    1.000
    N300     N        0.04547    0.86407    0.39992    1.000
    Si301    Si       0.04538    0.00380    0.46776    1.000
    N302     N        0.00511    0.00970    0.44919    1.000
    Si303    Si       0.00337    0.92324    0.40868    1.000
    Si304    Si       0.99823    0.91783    0.48466    1.000
    N305     N        0.01290    0.90430    0.44544    1.000
    N306     N        0.99219    0.89671    0.37466    1.000
    Si307    Si       0.02463    0.86111    0.59383    1.000
    N308     N        0.99586    0.82855    0.60028    1.000
    N309     N        0.99191    0.76700    0.56013    1.000
    N310     N        0.98517    0.83297    0.53425    1.000
    N311     N        0.04282    0.89230    0.61891    1.000
    N312     N        0.00534    0.88807    0.56560    1.000
    N313     N        0.02264    0.93049    0.51911    1.000
    Si314    Si       0.00519    0.93124    0.56126    1.000
    Si315    Si       0.02938    0.99419    0.58659    1.000
    N316     N        0.04105    0.95263    0.57461    1.000
    N317     N        0.99514    0.00700    0.56423    1.000
    N318     N        0.02418    0.78653    0.65703    1.000
    N319     N        0.03878    0.81854    0.71581    1.000
    Si320    Si       0.99822    0.80459    0.71311    1.000
    N321     N        0.00512    0.76056    0.71188    1.000
    Si322    Si       0.01280    0.90341    0.72181    1.000
    Si323    Si       0.04497    0.97379    0.72517    1.000
    N324     N        0.01168    0.94662    0.72218    1.000
    N325     N        0.02417    0.88897    0.68479    1.000
    N326     N        0.01712    0.98728    0.62840    1.000
    N327     N        0.01783    0.85629    0.82768    1.000
    N328     N        0.00341    0.79178    0.81354    1.000
    Si329    Si       0.03674    0.82161    0.81559    1.000
    N330     N        0.01857    0.87409    0.75344    1.000
    Si331    Si       0.02470    0.76424    0.83945    1.000
    Si332    Si       0.02551    0.87090    0.86779    1.000
    Si333    Si       0.00542    0.87943    0.79350    1.000
    N334     N        0.03314    0.97041    0.82640    1.000
    N335     N        0.01274    0.92133    0.79714    1.000
    Si336    Si       0.99210    0.95570    0.81577    1.000
    N337     N        0.02019    0.83746    0.89698    1.000
    Si338    Si       0.99221    0.86440    0.91728    1.000
    Si339    Si       0.03573    0.79754    0.89073    1.000
    N340     N        0.01036    0.75977    0.88192    1.000
    N341     N        0.01919    0.96274    0.97190    1.000
    N342     N        0.00052    0.88557    0.95364    1.000
    N343     N        0.00870    0.96974    0.90535    1.000
    Si344    Si       0.02407    0.89190    0.99093    1.000
    N345     N        0.07378    0.01947    0.04794    1.000
    Si346    Si       0.05246    0.04968    0.02311    1.000
    N347     N        0.10064    0.05024    0.11644    1.000
    Si348    Si       0.10392    0.03023    0.07765    1.000
    N349     N        0.10684    0.11016    0.07823    1.000
    N350     N        0.10683    0.12354    0.01393    1.000
    Si351    Si       0.09319    0.14855    0.09236    1.000
    Si352    Si       0.07069    0.25324    0.08962    1.000
    N353     N        0.05128    0.15163    0.08383    1.000
    N354     N        0.04963    0.21914    0.07439    1.000
    N355     N        0.08664    0.18555    0.99701    1.000
    N356     N        0.08603    0.01614    0.16300    1.000
    Si357    Si       0.08120    0.05821    0.15740    1.000
    N358     N        0.09247    0.08506    0.19092    1.000
    Si359    Si       0.05209    0.10463    0.18856    1.000
    Si360    Si       0.10128    0.23994    0.20001    1.000
    Si361    Si       0.07958    0.17545    0.15834    1.000
    N362     N        0.05271    0.14591    0.17495    1.000
    N363     N        0.06439    0.25198    0.18104    1.000
    N364     N        0.10457    0.19800    0.18492    1.000
    N365     N        0.09687    0.23882    0.24299    1.000
    N366     N        0.04833    0.19589    0.13709    1.000
    Si367    Si       0.09044    0.09086    0.28548    1.000
    N368     N        0.05734    0.06888    0.26816    1.000
    Si369    Si       0.06538    0.02846    0.25646    1.000
    N370     N        0.06996    0.12389    0.30297    1.000
    N371     N        0.10306    0.02637    0.36707    1.000
    N372     N        0.08070    0.18946    0.28995    1.000
    N373     N        0.08013    0.16373    0.35559    1.000
    Si374    Si       0.09337    0.15748    0.31484    1.000
    N375     N        0.07315    0.23378    0.36620    1.000
    Si376    Si       0.07251    0.12564    0.37646    1.000
    N377     N        0.07214    0.02990    0.44989    1.000
    N378     N        0.06672    0.08973    0.47833    1.000
    Si379    Si       0.09274    0.05632    0.48039    1.000
    Si380    Si       0.08595    0.01599    0.40846    1.000
    N381     N        0.06101    0.12608    0.41938    1.000
    N382     N        0.05824    0.24682    0.47366    1.000
    N383     N        0.09828    0.15192    0.47808    1.000
    N384     N        0.07714    0.19540    0.42126    1.000
    Si385    Si       0.09573    0.19830    0.37897    1.000
    Si386    Si       0.05613    0.23249    0.43340    1.000
    Si387    Si       0.08877    0.15467    0.43378    1.000
    N388     N        0.05955    0.02475    0.57902    1.000
    N389     N        0.09739    0.04337    0.52322    1.000
    Si390    Si       0.08068    0.04892    0.61055    1.000
    Si391    Si       0.08161    0.12028    0.50346    1.000
    Si392    Si       0.07150    0.01334    0.53744    1.000
    N393     N        0.08035    0.15053    0.57836    1.000
    N394     N        0.09315    0.21368    0.58899    1.000
    Si395    Si       0.09259    0.23418    0.55219    1.000
    N396     N        0.08832    0.20539    0.52017    1.000
    Si397    Si       0.07489    0.18053    0.61058    1.000
    N398     N        0.05023    0.24783    0.54463    1.000
    Si399    Si       0.05110    0.22383    0.50914    1.000
    N400     N        0.08858    0.01932    0.64491    1.000
    Si401    Si       0.07921    0.12003    0.73229    1.000
    N402     N        0.06535    0.07854    0.63910    1.000
    Si403    Si       0.08941    0.08861    0.67542    1.000
    N404     N        0.08636    0.07496    0.71771    1.000
    N405     N        0.08615    0.12934    0.69022    1.000
    Si406    Si       0.06018    0.04732    0.74404    1.000
    Si407    Si       0.09027    0.17300    0.68214    1.000
    N408     N        0.05045    0.18902    0.69756    1.000
    N409     N        0.06916    0.23207    0.64646    1.000
    N410     N        0.09586    0.02859    0.75966    1.000
    Si411    Si       0.06845    0.13053    0.84206    1.000
    N412     N        0.10216    0.10820    0.82660    1.000
    Si413    Si       0.09393    0.19296    0.82726    1.000
    N414     N        0.08211    0.22329    0.80147    1.000
    N415     N        0.05603    0.17007    0.82811    1.000
    N416     N        0.09390    0.20956    0.86926    1.000
    N417     N        0.05950    0.11966    0.96293    1.000
    Si418    Si       0.08314    0.02458    0.96357    1.000
    Si419    Si       0.07794    0.04215    0.89990    1.000
    N420     N        0.06650    0.08192    0.90927    1.000
    Si421    Si       0.09244    0.09934    0.98112    1.000
    Si422    Si       0.09773    0.11472    0.91246    1.000
    N423     N        0.08307    0.05795    0.98963    1.000
    N424     N        0.04887    0.02004    0.93688    1.000
    Si425    Si       0.10067    0.21038    0.95955    1.000
    N426     N        0.07957    0.14025    0.88260    1.000
    Si427    Si       0.05675    0.15924    0.98077    1.000
    Si428    Si       0.07115    0.18085    0.89375    1.000
    N429     N        0.07067    0.24117    0.96153    1.000
    N430     N        0.08661    0.17817    0.93354    1.000
    N431     N        0.07530    0.29048    0.06808    1.000
    Si432    Si       0.06299    0.37555    0.06089    1.000
    N433     N        0.09988    0.35437    0.06161    1.000
    Si434    Si       0.07676    0.45647    0.02213    1.000
    N435     N        0.06928    0.41044    0.03380    1.000
    N436     N        0.05694    0.39050    0.10327    1.000
    Si437    Si       0.08508    0.41814    0.12039    1.000
    N438     N        0.07263    0.50405    0.00837    1.000
    N439     N        0.09248    0.31040    0.22388    1.000
    Si440    Si       0.06821    0.28740    0.15531    1.000
    Si441    Si       0.08212    0.34127    0.19556    1.000
    N442     N        0.05075    0.32332    0.17133    1.000
    Si443    Si       0.09738    0.41453    0.19455    1.000
    N444     N        0.07541    0.45961    0.12795    1.000
    N445     N        0.07128    0.38245    0.20936    1.000
    N446     N        0.09220    0.45699    0.19332    1.000
    Si447    Si       0.10240    0.49263    0.21445    1.000
    Si448    Si       0.08872    0.36506    0.28986    1.000
    N449     N        0.08957    0.34284    0.32792    1.000
    N450     N        0.05539    0.35662    0.26342    1.000
    Si451    Si       0.08420    0.27771    0.25367    1.000
    Si452    Si       0.05108    0.33505    0.34994    1.000
    N453     N        0.04920    0.29273    0.36316    1.000
    Si454    Si       0.04799    0.43173    0.29292    1.000
    N455     N        0.06357    0.47204    0.28638    1.000
    N456     N        0.08545    0.40728    0.30232    1.000
    Si457    Si       0.09203    0.49645    0.31207    1.000
    N458     N        0.08876    0.41431    0.36850    1.000
    Si459    Si       0.08889    0.27710    0.37821    1.000
    Si460    Si       0.08752    0.28098    0.45903    1.000
    N461     N        0.07683    0.32280    0.45585    1.000
    N462     N        0.09804    0.32065    0.39032    1.000
    N463     N        0.08323    0.26290    0.41995    1.000
    N464     N        0.10064    0.38236    0.42535    1.000
    N465     N        0.09643    0.39644    0.49409    1.000
    Si466    Si       0.05914    0.47096    0.42442    1.000
    N467     N        0.08443    0.50309    0.41184    1.000
    Si468    Si       0.07812    0.40344    0.45672    1.000
    Si469    Si       0.05144    0.50213    0.48975    1.000
    N470     N        0.08865    0.44180    0.43835    1.000
    Si471    Si       0.08369    0.37162    0.57870    1.000
    Si472    Si       0.09452    0.30002    0.61252    1.000
    N473     N        0.05822    0.28752    0.59644    1.000
    N474     N        0.05214    0.35843    0.55355    1.000
    Si475    Si       0.08594    0.47922    0.55578    1.000
    N476     N        0.09878    0.44297    0.57427    1.000
    N477     N        0.06724    0.50182    0.58839    1.000
    Si478    Si       0.08531    0.43464    0.61529    1.000
    N479     N        0.07665    0.39093    0.61726    1.000
    N480     N        0.05377    0.48244    0.52872    1.000
    Si481    Si       0.10405    0.33525    0.68039    1.000
    N482     N        0.05066    0.26767    0.69874    1.000
    Si483    Si       0.08389    0.26365    0.67206    1.000
    N484     N        0.06922    0.36160    0.67962    1.000
    N485     N        0.09014    0.30300    0.65618    1.000
    Si486    Si       0.09469    0.39523    0.66134    1.000
    N487     N        0.09909    0.47007    0.74046    1.000
    N488     N        0.07701    0.42264    0.69441    1.000
    N489     N        0.05397    0.45429    0.63657    1.000
    Si490    Si       0.08158    0.42582    0.73896    1.000
    N491     N        0.06792    0.29472    0.82825    1.000
    Si492    Si       0.06744    0.35553    0.77682    1.000
    Si493    Si       0.09228    0.29897    0.86285    1.000
    Si494    Si       0.08077    0.26717    0.79814    1.000
    N495     N        0.06719    0.31588    0.75016    1.000
    N496     N        0.04982    0.44344    0.76843    1.000
    N497     N        0.06887    0.38887    0.80862    1.000
    Si498    Si       0.07622    0.47530    0.77609    1.000
    N499     N        0.09843    0.45783    0.81098    1.000
    N500     N        0.06390    0.48188    0.86526    1.000
    Si501    Si       0.09959    0.48900    0.84294    1.000
    Si502    Si       0.10518    0.41471    0.80601    1.000
    N503     N        0.05615    0.38586    0.74653    1.000
    N504     N        0.10425    0.30147    0.95990    1.000
    N505     N        0.06849    0.29138    0.89948    1.000
    Si506    Si       0.08113    0.33819    0.95570    1.000
    N507     N        0.09712    0.36098    0.92285    1.000
    Si508    Si       0.08713    0.27068    0.93474    1.000
    N509     N        0.08628    0.36352    0.99019    1.000
    N510     N        0.09591    0.43773    0.91711    1.000
    Si511    Si       0.07696    0.39807    0.91831    1.000
    N512     N        0.05535    0.40866    0.88184    1.000
    Si513    Si       0.06078    0.45027    0.89294    1.000
    Si514    Si       0.06941    0.40389    0.99072    1.000
    N515     N        0.09756    0.49931    0.94253    1.000
    N516     N        0.09778    0.44078    0.98506    1.000
    N517     N        0.04772    0.40444    0.95237    1.000
    Si518    Si       0.06834    0.53317    0.07773    1.000
    Si519    Si       0.05310    0.60759    0.04882    1.000
    N520     N        0.05334    0.60960    0.00497    1.000
    N521     N        0.09185    0.62618    0.06117    1.000
    N522     N        0.10941    0.53650    0.06070    1.000
    Si523    Si       0.08996    0.66822    0.07694    1.000
    N524     N        0.09393    0.69028    0.04086    1.000
    Si525    Si       0.06079    0.70522    0.01951    1.000
    N526     N        0.05614    0.67941    0.09981    1.000
    N527     N        0.07247    0.52810    0.12053    1.000
    N528     N        0.08053    0.57095    0.17621    1.000
    Si529    Si       0.08759    0.61467    0.18028    1.000
    Si530    Si       0.05952    0.55146    0.20773    1.000
    Si531    Si       0.09916    0.54292    0.14900    1.000
    N532     N        0.06462    0.51387    0.22621    1.000
    N533     N        0.05378    0.57810    0.24448    1.000
    Si534    Si       0.10728    0.72523    0.23017    1.000
    N535     N        0.09393    0.63340    0.14261    1.000
    Si536    Si       0.06253    0.68270    0.20127    1.000
    N537     N        0.05878    0.63762    0.20245    1.000
    N538     N        0.10180    0.69898    0.19669    1.000
    Si539    Si       0.05663    0.65958    0.13871    1.000
    N540     N        0.07116    0.58846    0.30898    1.000
    Si541    Si       0.06031    0.59049    0.35060    1.000
    Si542    Si       0.06438    0.55756    0.28231    1.000
    Si543    Si       0.09810    0.61745    0.29312    1.000
    N544     N        0.06547    0.51447    0.34286    1.000
    N545     N        0.09914    0.52979    0.28375    1.000
    N546     N        0.05761    0.62927    0.37083    1.000
    N547     N        0.07233    0.64340    0.27021    1.000
    Si548    Si       0.07369    0.68622    0.27439    1.000
    Si549    Si       0.07926    0.72084    0.34308    1.000
    N550     N        0.05920    0.69370    0.31485    1.000
    Si551    Si       0.08929    0.65862    0.36074    1.000
    N552     N        0.05881    0.75807    0.35494    1.000
    Si553    Si       0.08985    0.52668    0.37677    1.000
    N554     N        0.08674    0.57051    0.37772    1.000
    Si555    Si       0.05379    0.57218    0.46051    1.000
    N556     N        0.08744    0.62471    0.43580    1.000
    N557     N        0.09018    0.55996    0.44275    1.000
    Si558    Si       0.04993    0.62904    0.41513    1.000
    N559     N        0.09394    0.50952    0.48401    1.000
    Si560    Si       0.09617    0.64797    0.47126    1.000
    Si561    Si       0.05624    0.75771    0.40099    1.000
    N562     N        0.07264    0.69555    0.37750    1.000
    N563     N        0.06294    0.66311    0.49352    1.000
    N564     N        0.09245    0.74954    0.42336    1.000
    N565     N        0.07712    0.55390    0.54062    1.000
    Si566    Si       0.07680    0.54435    0.58314    1.000
    N567     N        0.08946    0.62117    0.55497    1.000
    Si568    Si       0.10116    0.59532    0.52105    1.000
    N569     N        0.06155    0.59560    0.49683    1.000
    Si570    Si       0.06098    0.64269    0.57869    1.000
    Si571    Si       0.06334    0.69278    0.52569    1.000
    N572     N        0.07821    0.66610    0.60920    1.000
    N573     N        0.09873    0.69880    0.55226    1.000
    N574     N        0.09728    0.72429    0.61884    1.000
    N575     N        0.09235    0.72594    0.49832    1.000
    Si576    Si       0.06365    0.75817    0.51118    1.000
    N577     N        0.09596    0.60438    0.63272    1.000
    N578     N        0.09425    0.59727    0.71427    1.000
    Si579    Si       0.07386    0.62468    0.68989    1.000
    Si580    Si       0.05246    0.59498    0.62959    1.000
    N581     N        0.05246    0.54022    0.72276    1.000
    Si582    Si       0.08575    0.56134    0.73954    1.000
    Si583    Si       0.05298    0.51020    0.69073    1.000
    N584     N        0.09655    0.51236    0.68507    1.000
    N585     N        0.05206    0.65891    0.70746    1.000
    Si586    Si       0.05708    0.70457    0.62543    1.000
    N587     N        0.10547    0.65361    0.67345    1.000
    Si588    Si       0.05848    0.70532    0.70643    1.000
    N589     N        0.09939    0.71553    0.70590    1.000
    Si590    Si       0.10950    0.64589    0.63212    1.000
    N591     N        0.08158    0.57765    0.78108    1.000
    Si592    Si       0.06904    0.54395    0.80315    1.000
    N593     N        0.05231    0.51129    0.77979    1.000
    N594     N        0.10410    0.52983    0.82604    1.000
    N595     N        0.10162    0.68764    0.84643    1.000
    N596     N        0.08572    0.63717    0.79562    1.000
    Si597    Si       0.06842    0.73233    0.78101    1.000
    N598     N        0.10532    0.70804    0.78281    1.000
    Si599    Si       0.07543    0.60603    0.96504    1.000
    N600     N        0.09601    0.54778    0.88730    1.000
    Si601    Si       0.05751    0.55864    0.90632    1.000
    N602     N        0.07092    0.56852    0.94669    1.000
    Si603    Si       0.07751    0.52924    0.96918    1.000
    Si604    Si       0.07235    0.67937    0.87572    1.000
    N605     N        0.09233    0.64408    0.89365    1.000
    Si606    Si       0.05025    0.63131    0.90375    1.000
    N607     N        0.07186    0.72043    0.89105    1.000
    N608     N        0.07497    0.73085    0.99023    1.000
    N609     N        0.07928    0.81810    0.05185    1.000
    Si610    Si       0.08463    0.80225    0.00845    1.000
    Si611    Si       0.10101    0.80902    0.08845    1.000
    Si612    Si       0.05406    0.85324    0.05141    1.000
    N613     N        0.07939    0.88842    0.05636    1.000
    Si614    Si       0.07588    0.97917    0.03022    1.000
    Si615    Si       0.09289    0.92517    0.07857    1.000
    N616     N        0.06229    0.94298    0.10338    1.000
    Si617    Si       0.09228    0.90685    0.01871    1.000
    N618     N        0.09936    0.94496    0.04119    1.000
    N619     N        0.08165    0.79240    0.12443    1.000
    N620     N        0.07983    0.84828    0.17631    1.000
    Si621    Si       0.09077    0.79931    0.21988    1.000
    Si622    Si       0.10297    0.82063    0.15113    1.000
    N623     N        0.08064    0.75839    0.23346    1.000
    N624     N        0.08705    0.96686    0.22293    1.000
    Si625    Si       0.05655    0.93162    0.14485    1.000
    Si626    Si       0.06398    0.99146    0.19147    1.000
    N627     N        0.09280    0.91413    0.16100    1.000
    Si628    Si       0.08004    0.92514    0.23553    1.000
    N629     N        0.05943    0.80584    0.29482    1.000
    N630     N        0.07776    0.82098    0.35865    1.000
    N631     N        0.09904    0.86856    0.30316    1.000
    Si632    Si       0.09921    0.82677    0.29092    1.000
    Si633    Si       0.05149    0.79406    0.33435    1.000
    Si634    Si       0.06210    0.89080    0.29485    1.000
    N635     N        0.07701    0.96668    0.34102    1.000
    N636     N        0.07356    0.92962    0.27944    1.000
    Si637    Si       0.07941    0.96674    0.29766    1.000
    N638     N        0.09846    0.89601    0.36758    1.000
    N639     N        0.05176    0.99720    0.28176    1.000
    Si640    Si       0.08351    0.81746    0.47792    1.000
    N641     N        0.07296    0.85679    0.46155    1.000
    N642     N        0.05669    0.78459    0.47940    1.000
    N643     N        0.10382    0.90983    0.43577    1.000
    N644     N        0.04811    0.93278    0.39657    1.000
    Si645    Si       0.05494    0.89655    0.37256    1.000
    Si646    Si       0.07867    0.94437    0.42466    1.000
    Si647    Si       0.09586    0.95760    0.48765    1.000
    Si648    Si       0.10090    0.88674    0.47451    1.000
    N649     N        0.06349    0.96537    0.45973    1.000
    N650     N        0.04532    0.00319    0.39308    1.000
    Si651    Si       0.08386    0.81216    0.55733    1.000
    N652     N        0.06132    0.83650    0.58379    1.000
    N653     N        0.06461    0.77365    0.55328    1.000
    N654     N        0.09055    0.82884    0.51853    1.000
    N655     N        0.08544    0.97265    0.52796    1.000
    N656     N        0.08603    0.91188    0.56776    1.000
    Si657    Si       0.06321    0.92619    0.60071    1.000
    Si658    Si       0.06257    0.93552    0.53631    1.000
    N659     N        0.08862    0.91599    0.50156    1.000
    Si660    Si       0.08575    0.83194    0.61974    1.000
    N661     N        0.09629    0.79162    0.62918    1.000
    N662     N        0.06163    0.84115    0.65467    1.000
    Si663    Si       0.05853    0.80615    0.67976    1.000
    N664     N        0.09996    0.79621    0.69720    1.000
    N665     N        0.08505    0.87737    0.73176    1.000
    Si666    Si       0.05487    0.88377    0.65866    1.000
    Si667    Si       0.05392    0.84770    0.74348    1.000
    N668     N        0.06695    0.96964    0.68818    1.000
    Si669    Si       0.05884    0.98870    0.64815    1.000
    Si670    Si       0.09782    0.94311    0.67028    1.000
    N671     N        0.07788    0.95348    0.63135    1.000
    N672     N        0.09452    0.90171    0.66379    1.000
    N673     N        0.06398    0.82936    0.78214    1.000
    Si674    Si       0.09611    0.80066    0.85609    1.000
    N675     N        0.09540    0.76839    0.77579    1.000
    N676     N        0.05440    0.79786    0.84953    1.000
    Si677    Si       0.10392    0.81124    0.78327    1.000
    N678     N        0.06584    0.96586    0.76317    1.000
    N679     N        0.07778    0.91579    0.81600    1.000
    Si680    Si       0.05135    0.94165    0.79540    1.000
    Si681    Si       0.10288    0.98834    0.77582    1.000
    Si682    Si       0.09977    0.90127    0.85191    1.000
    Si683    Si       0.09314    0.79448    0.93460    1.000
    N684     N        0.09586    0.82192    0.96939    1.000
    N685     N        0.05303    0.77602    0.92736    1.000
    N686     N        0.09608    0.81845    0.89716    1.000
    Si687    Si       0.09981    0.86002    0.89526    1.000
    N688     N        0.06307    0.91464    0.98785    1.000
    N689     N        0.08290    0.98683    0.98666    1.000
    N690     N        0.10296    0.88264    0.93184    1.000
    N691     N        0.06633    0.00483    0.87776    1.000
    Si692    Si       0.06008    0.95287    0.96850    1.000
    Si693    Si       0.05026    0.98296    0.91075    1.000
    N694     N        0.06740    0.88132    0.87513    1.000
    N695     N        0.07401    0.94989    0.92744    1.000
    N696     N        0.13188    0.05867    0.06261    1.000
    Si697    Si       0.13356    0.09917    0.04083    1.000
    Si698    Si       0.12515    0.08175    0.10120    1.000
    N699     N        0.15716    0.07838    0.00890    1.000
    Si700    Si       0.16352    0.21530    0.00551    1.000
    N701     N        0.11060    0.24034    0.09831    1.000
    Si702    Si       0.11576    0.16417    0.02118    1.000
    N703     N        0.14722    0.23836    0.04106    1.000
    Si704    Si       0.13342    0.21241    0.07418    1.000
    N705     N        0.15765    0.17548    0.02056    1.000
    N706     N        0.10970    0.17692    0.06414    1.000
    N707     N        0.16340    0.07309    0.20038    1.000
    N708     N        0.14685    0.09634    0.13564    1.000
    Si709    Si       0.12846    0.10016    0.20841    1.000
    N710     N        0.16004    0.02737    0.14960    1.000
    Si711    Si       0.12114    0.00801    0.13612    1.000
    N712     N        0.10753    0.02999    0.24925    1.000
    N713     N        0.10829    0.15436    0.13086    1.000
    Si714    Si       0.13851    0.17997    0.20402    1.000
    N715     N        0.13930    0.13751    0.19299    1.000
    Si716    Si       0.14595    0.13784    0.14912    1.000
    Si717    Si       0.11846    0.06103    0.34946    1.000
    Si718    Si       0.13612    0.05689    0.26798    1.000
    N719     N        0.11562    0.06227    0.30569    1.000
    N720     N        0.12295    0.09899    0.25444    1.000
    N721     N        0.15870    0.07378    0.35514    1.000
    N722     N        0.10510    0.09716    0.37086    1.000
    Si723    Si       0.14372    0.13964    0.26939    1.000
    N724     N        0.14123    0.22444    0.30204    1.000
    N725     N        0.13657    0.15430    0.30963    1.000
    Si726    Si       0.11524    0.20871    0.27001    1.000
    N727     N        0.13873    0.19794    0.36398    1.000
    Si728    Si       0.15911    0.18899    0.32449    1.000
    N729     N        0.13157    0.17532    0.24851    1.000
    N730     N        0.13148    0.07433    0.47239    1.000
    Si731    Si       0.15219    0.05649    0.43863    1.000
    Si732    Si       0.14891    0.10843    0.38081    1.000
    N733     N        0.13006    0.02511    0.42434    1.000
    N734     N        0.14556    0.21231    0.47802    1.000
    N735     N        0.12532    0.14796    0.41001    1.000
    Si736    Si       0.15728    0.17078    0.39362    1.000
    Si737    Si       0.12161    0.06877    0.54774    1.000
    N738     N        0.11574    0.06417    0.58886    1.000
    N739     N        0.16259    0.06160    0.53194    1.000
    N740     N        0.10788    0.10848    0.53600    1.000
    Si741    Si       0.14784    0.06908    0.61912    1.000
    Si742    Si       0.11814    0.14373    0.55875    1.000
    N743     N        0.15003    0.14906    0.58888    1.000
    N744     N        0.14351    0.16587    0.52987    1.000
    Si745    Si       0.14810    0.25037    0.49977    1.000
    N746     N        0.13108    0.25087    0.54109    1.000
    Si747    Si       0.12055    0.18422    0.49740    1.000
    N748     N        0.15849    0.02809    0.63477    1.000
    Si749    Si       0.12026    0.04742    0.72942    1.000
    N750     N        0.12835    0.08240    0.65524    1.000
    N751     N        0.15854    0.06763    0.72964    1.000
    N752     N        0.12734    0.01401    0.70044    1.000
    Si753    Si       0.12710    0.01107    0.65790    1.000
    N754     N        0.15423    0.21094    0.61945    1.000
    Si755    Si       0.14711    0.16859    0.62630    1.000
    N756     N        0.11809    0.19254    0.70778    1.000
    Si757    Si       0.13711    0.17066    0.74087    1.000
    Si758    Si       0.14345    0.22669    0.69711    1.000
    Si759    Si       0.11202    0.22427    0.62591    1.000
    N760     N        0.12623    0.24830    0.66492    1.000
    N761     N        0.10612    0.17611    0.64242    1.000
    Si762    Si       0.12575    0.08516    0.85284    1.000
    N763     N        0.10502    0.04941    0.86382    1.000
    Si764    Si       0.12504    0.13302    0.79719    1.000
    N765     N        0.13059    0.16893    0.82129    1.000
    N766     N        0.15566    0.20569    0.76006    1.000
    Si767    Si       0.14935    0.25180    0.76385    1.000
    N768     N        0.10779    0.14221    0.75860    1.000
    N769     N        0.16308    0.21257    0.86766    1.000
    Si770    Si       0.15653    0.09064    0.92822    1.000
    N771     N        0.13559    0.10571    0.89121    1.000
    N772     N        0.12157    0.10288    0.95022    1.000
    Si773    Si       0.14629    0.01516    0.91907    1.000
    N774     N        0.10957    0.03071    0.93010    1.000
    N775     N        0.14435    0.21308    0.96572    1.000
    Si776    Si       0.15829    0.24830    0.93928    1.000
    N777     N        0.12000    0.24812    0.91838    1.000
    Si778    Si       0.12643    0.23496    0.87793    1.000
    N779     N        0.12971    0.30794    0.02821    1.000
    N780     N        0.14610    0.36234    0.10941    1.000
    N781     N        0.14776    0.29534    0.08876    1.000
    Si782    Si       0.12103    0.35361    0.01675    1.000
    Si783    Si       0.15896    0.27957    0.05035    1.000
    Si784    Si       0.11113    0.31364    0.06753    1.000
    Si785    Si       0.13175    0.38285    0.07450    1.000
    Si786    Si       0.13622    0.26644    0.12002    1.000
    N787     N        0.14617    0.38651    0.03377    1.000
    Si788    Si       0.13739    0.45634    0.07904    1.000
    N789     N        0.11678    0.42085    0.08981    1.000
    N790     N        0.13927    0.47757    0.11633    1.000
    N791     N        0.11419    0.47027    0.04463    1.000
    Si792    Si       0.14238    0.30404    0.17958    1.000
    N793     N        0.12060    0.34557    0.17496    1.000
    Si794    Si       0.13816    0.37632    0.15004    1.000
    N795     N        0.10896    0.28983    0.14240    1.000
    N796     N        0.16164    0.31603    0.21885    1.000
    N797     N        0.13863    0.26093    0.19198    1.000
    N798     N        0.13549    0.40908    0.21678    1.000
    N799     N        0.15681    0.46061    0.17322    1.000
    Si800    Si       0.11358    0.46747    0.15573    1.000
    N801     N        0.13429    0.49163    0.24403    1.000
    N802     N        0.10895    0.40803    0.15398    1.000
    N803     N        0.12426    0.36144    0.26525    1.000
    N804     N        0.11937    0.29086    0.27856    1.000
    Si805    Si       0.13940    0.26640    0.30980    1.000
    Si806    Si       0.11981    0.32367    0.35334    1.000
    N807     N        0.12121    0.28113    0.34749    1.000
    N808     N        0.15792    0.34034    0.35894    1.000
    Si809    Si       0.12857    0.32203    0.24702    1.000
    N810     N        0.14989    0.40622    0.33793    1.000
    Si811    Si       0.14502    0.47926    0.36401    1.000
    N812     N        0.11651    0.46627    0.33360    1.000
    Si813    Si       0.15177    0.39497    0.25465    1.000
    Si814    Si       0.11082    0.42316    0.33276    1.000
    N815     N        0.15702    0.43236    0.27846    1.000
    N816     N        0.14911    0.33812    0.43187    1.000
    N817     N        0.12786    0.27640    0.47477    1.000
    Si818    Si       0.10652    0.33903    0.42752    1.000
    N819     N        0.14419    0.44876    0.39829    1.000
    Si820    Si       0.11089    0.42076    0.40499    1.000
    Si821    Si       0.14433    0.34664    0.57811    1.000
    N822     N        0.13006    0.27361    0.60604    1.000
    Si823    Si       0.15511    0.27570    0.56799    1.000
    N824     N        0.16133    0.31581    0.55276    1.000
    N825     N        0.16039    0.36307    0.50087    1.000
    N826     N        0.10513    0.33652    0.59504    1.000
    N827     N        0.12532    0.38448    0.56238    1.000
    Si828    Si       0.12999    0.38864    0.51819    1.000
    Si829    Si       0.13755    0.42800    0.56543    1.000
    N830     N        0.15079    0.42572    0.52370    1.000
    N831     N        0.12210    0.50142    0.55127    1.000
    N832     N        0.16869    0.44775    0.58941    1.000
    N833     N        0.12701    0.36706    0.66449    1.000
    N834     N        0.12374    0.32414    0.71740    1.000
    Si835    Si       0.15317    0.27347    0.64308    1.000
    Si836    Si       0.16031    0.30255    0.70779    1.000
    N837     N        0.15212    0.26177    0.72143    1.000
    N838     N        0.16051    0.30891    0.66373    1.000
    N839     N        0.11918    0.43116    0.64168    1.000
    N840     N        0.14466    0.49416    0.62610    1.000
    Si841    Si       0.11994    0.50078    0.71814    1.000
    Si842    Si       0.15646    0.45083    0.63062    1.000
    N843     N        0.15238    0.48812    0.69337    1.000
    N844     N        0.12752    0.27286    0.85749    1.000
    Si845    Si       0.12966    0.35002    0.82391    1.000
    N846     N        0.11664    0.33608    0.86204    1.000
    N847     N        0.11725    0.27560    0.77587    1.000
    N848     N        0.10947    0.34272    0.78678    1.000
    Si849    Si       0.16069    0.30206    0.85610    1.000
    Si850    Si       0.11032    0.31303    0.75650    1.000
    N851     N        0.13806    0.39164    0.82456    1.000
    N852     N        0.11650    0.41105    0.76198    1.000
    Si853    Si       0.16000    0.41228    0.75878    1.000
    Si854    Si       0.13740    0.30283    0.98637    1.000
    Si855    Si       0.13448    0.35162    0.90300    1.000
    N856     N        0.15010    0.34553    0.97949    1.000
    N857     N        0.16526    0.27258    0.97618    1.000
    N858     N        0.15849    0.46942    0.95287    1.000
    N859     N        0.13143    0.48809    0.87380    1.000
    N860     N        0.15878    0.38629    0.91975    1.000
    Si861    Si       0.11563    0.46047    0.95145    1.000
    N862     N        0.14682    0.60748    0.09364    1.000
    Si863    Si       0.14986    0.55123    0.05288    1.000
    N864     N        0.14799    0.58769    0.03127    1.000
    Si865    Si       0.13611    0.62137    0.05495    1.000
    N866     N        0.15867    0.51768    0.02853    1.000
    Si867    Si       0.11633    0.51148    0.02386    1.000
    Si868    Si       0.13595    0.69534    0.03695    1.000
    N869     N        0.12651    0.66987    0.10091    1.000
    N870     N        0.15210    0.72068    0.06637    1.000
    Si871    Si       0.15072    0.70491    0.10903    1.000
    N872     N        0.16039    0.65895    0.03784    1.000
    N873     N        0.14582    0.55337    0.22058    1.000
    N874     N        0.13923    0.56031    0.14453    1.000
    Si875    Si       0.15293    0.53566    0.18044    1.000
    Si876    Si       0.14612    0.59635    0.23144    1.000
    N877     N        0.12398    0.62048    0.20110    1.000
    N878     N        0.11608    0.51149    0.17549    1.000
    Si879    Si       0.13360    0.63490    0.12504    1.000
    Si880    Si       0.16220    0.63784    0.19021    1.000
    N881     N        0.14795    0.73030    0.14301    1.000
    Si882    Si       0.14095    0.71109    0.18162    1.000
    N883     N        0.14481    0.74057    0.21350    1.000
    N884     N        0.12945    0.59820    0.27028    1.000
    Si885    Si       0.13822    0.53303    0.25874    1.000
    N886     N        0.15371    0.58879    0.33784    1.000
    Si887    Si       0.14595    0.62956    0.35267    1.000
    N888     N        0.13379    0.52155    0.36715    1.000
    Si889    Si       0.16325    0.58687    0.29484    1.000
    Si890    Si       0.15742    0.55746    0.36768    1.000
    N891     N        0.11302    0.64131    0.32580    1.000
    N892     N        0.12005    0.71576    0.33171    1.000
    Si893    Si       0.14114    0.71150    0.29507    1.000
    N894     N        0.15778    0.74906    0.28014    1.000
    N895     N        0.11015    0.70194    0.26479    1.000
    Si896    Si       0.10788    0.52142    0.44503    1.000
    N897     N        0.14777    0.58449    0.40357    1.000
    N898     N        0.15031    0.52129    0.44105    1.000
    Si899    Si       0.10558    0.58985    0.41468    1.000
    Si900    Si       0.10616    0.72308    0.45760    1.000
    N901     N        0.12465    0.65148    0.38485    1.000
    N902     N        0.11446    0.68182    0.45274    1.000
    N903     N        0.14361    0.74554    0.45814    1.000
    Si904    Si       0.14189    0.66886    0.42086    1.000
    N905     N        0.13379    0.56459    0.51487    1.000
    N906     N        0.11638    0.54998    0.59736    1.000
    Si907    Si       0.14427    0.51671    0.58862    1.000
    Si908    Si       0.10940    0.52893    0.52014    1.000
    N909     N        0.12475    0.62693    0.49744    1.000
    N910     N        0.16283    0.60234    0.61135    1.000
    Si911    Si       0.12660    0.72094    0.52779    1.000
    N912     N        0.13880    0.66790    0.60973    1.000
    Si913    Si       0.10880    0.69338    0.59358    1.000
    N914     N        0.16426    0.70281    0.54135    1.000
    Si915    Si       0.13127    0.57856    0.62572    1.000
    N916     N        0.14978    0.55562    0.66017    1.000
    Si917    Si       0.13402    0.61274    0.72728    1.000
    Si918    Si       0.13510    0.51460    0.66293    1.000
    N919     N        0.16251    0.61531    0.69497    1.000
    N920     N        0.12218    0.53593    0.74342    1.000
    N921     N        0.16256    0.69141    0.69334    1.000
    Si922    Si       0.11889    0.75689    0.69889    1.000
    N923     N        0.14577    0.75577    0.66400    1.000
    N924     N        0.14481    0.75287    0.73280    1.000
    Si925    Si       0.12152    0.68071    0.70008    1.000
    N926     N        0.12866    0.65568    0.73557    1.000
    N927     N        0.14465    0.59900    0.76711    1.000
    Si928    Si       0.12073    0.55877    0.85352    1.000
    N929     N        0.11509    0.59954    0.84153    1.000
    Si930    Si       0.11367    0.60493    0.79774    1.000
    N931     N        0.16428    0.55724    0.86024    1.000
    Si932    Si       0.10759    0.67280    0.80609    1.000
    Si933    Si       0.16268    0.66063    0.76230    1.000
    N934     N        0.14753    0.65761    0.80171    1.000
    Si935    Si       0.13084    0.74246    0.77282    1.000
    N936     N        0.16016    0.75287    0.80399    1.000
    N937     N        0.15949    0.65350    0.86821    1.000
    Si938    Si       0.12708    0.62523    0.87687    1.000
    Si939    Si       0.11647    0.51334    0.90699    1.000
    Si940    Si       0.13846    0.58227    0.98951    1.000
    Si941    Si       0.15004    0.62431    0.94643    1.000
    N942     N        0.11627    0.61609    0.97311    1.000
    N943     N        0.14461    0.60317    0.90820    1.000
    N944     N        0.15060    0.53297    0.92201    1.000
    N945     N        0.11465    0.54606    0.99041    1.000
    N946     N        0.14259    0.71129    0.99440    1.000
    N947     N        0.14331    0.71923    0.89700    1.000
    Si948    Si       0.15357    0.75259    0.92405    1.000
    Si949    Si       0.11112    0.72538    0.86769    1.000
    Si950    Si       0.11630    0.74328    0.98560    1.000
    N951     N        0.16482    0.66555    0.94140    1.000
    N952     N        0.14292    0.80227    0.07882    1.000
    Si953    Si       0.15107    0.79015    0.03821    1.000
    N954     N        0.11825    0.77566    0.01428    1.000
    Si955    Si       0.15508    0.84167    0.09646    1.000
    Si956    Si       0.15739    0.86561    0.02328    1.000
    N957     N        0.15814    0.87260    0.06713    1.000
    N958     N        0.12023    0.87826    0.00411    1.000
    N959     N        0.11620    0.84153    0.11692    1.000
    N960     N        0.12730    0.92216    0.10381    1.000
    N961     N        0.12825    0.99612    0.09380    1.000
    Si962    Si       0.15899    0.98358    0.06642    1.000
    N963     N        0.16203    0.00496    0.02737    1.000
    Si964    Si       0.16128    0.91230    0.08189    1.000
    Si965    Si       0.13119    0.85913    0.23706    1.000
    N966     N        0.14244    0.84863    0.19485    1.000
    Si967    Si       0.15617    0.80750    0.18994    1.000
    N968     N        0.11466    0.79516    0.18466    1.000
    Si969    Si       0.11320    0.88156    0.18125    1.000
    N970     N        0.15768    0.98995    0.22119    1.000
    Si971    Si       0.12073    0.98782    0.24285    1.000
    N972     N        0.15491    0.90541    0.16778    1.000
    N973     N        0.13438    0.97173    0.15814    1.000
    Si974    Si       0.12775    0.93161    0.14474    1.000
    N975     N        0.10768    0.89354    0.22502    1.000
    N976     N        0.12402    0.79950    0.31608    1.000
    N977     N        0.14536    0.85281    0.35079    1.000
    Si978    Si       0.12116    0.81742    0.35729    1.000
    Si979    Si       0.16101    0.77990    0.31121    1.000
    N980     N        0.10810    0.82496    0.24999    1.000
    Si981    Si       0.12618    0.88726    0.33134    1.000
    N982     N        0.12232    0.97231    0.28344    1.000
    N983     N        0.14783    0.96927    0.34898    1.000
    Si984    Si       0.15441    0.95748    0.30790    1.000
    N985     N        0.15414    0.91240    0.30719    1.000
    Si986    Si       0.11055    0.98335    0.36388    1.000
    N987     N        0.13968    0.86761    0.48739    1.000
    Si988    Si       0.12610    0.77560    0.42810    1.000
    N989     N        0.14836    0.85782    0.41745    1.000
    N990     N        0.12572    0.80569    0.46017    1.000
    N991     N        0.13677    0.79247    0.38958    1.000
    Si992    Si       0.15417    0.83981    0.45473    1.000
    Si993    Si       0.15445    0.77963    0.48867    1.000
    Si994    Si       0.14027    0.98260    0.43126    1.000
    N995     N        0.13371    0.97452    0.47372    1.000
    Si996    Si       0.12658    0.89113    0.40195    1.000
    N997     N        0.10273    0.97343    0.40560    1.000
    N998     N        0.16100    0.90853    0.38338    1.000
    N999     N        0.12662    0.81838    0.56801    1.000
    Si1000   Si       0.14619    0.85315    0.58740    1.000
    Si1001   Si       0.13346    0.84147    0.52290    1.000
    Si1002   Si       0.15409    0.78531    0.55975    1.000
    N1003    N        0.14632    0.87534    0.54924    1.000
    N1004    N        0.13871    0.76272    0.52691    1.000
    N1005    N        0.15296    0.76044    0.59762    1.000
    N1006    N        0.15452    0.93116    0.52351    1.000
    Si1007   Si       0.12657    0.91557    0.55569    1.000
    N1008    N        0.14731    0.94331    0.58563    1.000
    Si1009   Si       0.16598    0.89208    0.51264    1.000
    Si1010   Si       0.16670    0.96702    0.49760    1.000
    N1011    N        0.11844    0.85917    0.62031    1.000
    Si1012   Si       0.13079    0.82519    0.70933    1.000
    N1013    N        0.14178    0.86621    0.69671    1.000
    Si1014   Si       0.12988    0.87989    0.65419    1.000
    Si1015   Si       0.12266    0.75767    0.62683    1.000
    Si1016   Si       0.15666    0.94727    0.62637    1.000
    Si1017   Si       0.12271    0.89721    0.72398    1.000
    N1018    N        0.13730    0.96895    0.65884    1.000
    N1019    N        0.12072    0.93749    0.71068    1.000
    Si1020   Si       0.14342    0.97408    0.70697    1.000
    N1021    N        0.16157    0.90781    0.64386    1.000
    Si1022   Si       0.14955    0.84136    0.83800    1.000
    N1023    N        0.12168    0.81323    0.82225    1.000
    N1024    N        0.12832    0.86785    0.86126    1.000
    Si1025   Si       0.15100    0.78051    0.83453    1.000
    N1026    N        0.13425    0.82674    0.75364    1.000
    N1027    N        0.11955    0.76458    0.85855    1.000
    Si1028   Si       0.16339    0.85880    0.76534    1.000
    N1029    N        0.14512    0.89924    0.76208    1.000
    N1030    N        0.14330    0.97503    0.76463    1.000
    N1031    N        0.15210    0.93671    0.82457    1.000
    Si1032   Si       0.15757    0.93494    0.78165    1.000
    Si1033   Si       0.15113    0.95178    0.86416    1.000
    N1034    N        0.10276    0.99176    0.81767    1.000
    Si1035   Si       0.10562    0.00619    0.85729    1.000
    Si1036   Si       0.11803    0.85903    0.96421    1.000
    N1037    N        0.16132    0.85949    0.95759    1.000
    N1038    N        0.11785    0.76002    0.94588    1.000
    N1039    N        0.16258    0.99187    0.95214    1.000
    Si1040   Si       0.10890    0.92428    0.92191    1.000
    N1041    N        0.11542    0.93052    0.87941    1.000
    N1042    N        0.14144    0.99146    0.88044    1.000
    N1043    N        0.14627    0.92962    0.94414    1.000
    N1044    N        0.19980    0.05730    0.06083    1.000
    Si1045   Si       0.20557    0.09937    0.05441    1.000
    N1046    N        0.22098    0.10009    0.01216    1.000
    N1047    N        0.16877    0.12092    0.05847    1.000
    Si1048   Si       0.22572    0.02888    0.07960    1.000
    Si1049   Si       0.16566    0.04600    0.03706    1.000
    N1050    N        0.16900    0.19016    0.09034    1.000
    Si1051   Si       0.17868    0.16196    0.05919    1.000
    Si1052   Si       0.19688    0.21454    0.11332    1.000
    N1053    N        0.20562    0.22763    0.00526    1.000
    N1054    N        0.21898    0.16443    0.04734    1.000
    Si1055   Si       0.19325    0.05233    0.22129    1.000
    N1056    N        0.21228    0.07850    0.14984    1.000
    N1057    N        0.21209    0.02329    0.19322    1.000
    Si1058   Si       0.17012    0.06738    0.15860    1.000
    Si1059   Si       0.21886    0.11673    0.13144    1.000
    N1060    N        0.18896    0.14612    0.14811    1.000
    Si1061   Si       0.20865    0.17587    0.17373    1.000
    N1062    N        0.17417    0.19992    0.19003    1.000
    N1063    N        0.16937    0.24112    0.13453    1.000
    Si1064   Si       0.17234    0.24055    0.17679    1.000
    Si1065   Si       0.19899    0.06086    0.34472    1.000
    N1066    N        0.17678    0.04268    0.25973    1.000
    N1067    N        0.20451    0.01902    0.32814    1.000
    Si1068   Si       0.21152    0.03817    0.28979    1.000
    N1069    N        0.21180    0.07826    0.30538    1.000
    Si1070   Si       0.21849    0.10515    0.26888    1.000
    N1071    N        0.18463    0.12897    0.26219    1.000
    N1072    N        0.20158    0.18563    0.32175    1.000
    Si1073   Si       0.21525    0.15210    0.35051    1.000
    N1074    N        0.18535    0.04646    0.46459    1.000
    N1075    N        0.19470    0.11018    0.47876    1.000
    Si1076   Si       0.20358    0.10042    0.43723    1.000
    N1077    N        0.16679    0.09081    0.41769    1.000
    Si1078   Si       0.16983    0.07781    0.49282    1.000
    N1079    N        0.17880    0.14031    0.36971    1.000
    N1080    N        0.18318    0.18942    0.42146    1.000
    Si1081   Si       0.18564    0.20929    0.46042    1.000
    N1082    N        0.20559    0.18101    0.48501    1.000
    N1083    N        0.20891    0.24540    0.45027    1.000
    Si1084   Si       0.18915    0.02832    0.53768    1.000
    N1085    N        0.20015    0.03029    0.57989    1.000
    N1086    N        0.18656    0.08665    0.61410    1.000
    Si1087   Si       0.22176    0.06660    0.59507    1.000
    Si1088   Si       0.19641    0.01300    0.62005    1.000
    N1089    N        0.20944    0.13862    0.54098    1.000
    Si1090   Si       0.19297    0.22496    0.60510    1.000
    N1091    N        0.19582    0.20352    0.56552    1.000
    Si1092   Si       0.17864    0.16580    0.55604    1.000
    Si1093   Si       0.21276    0.23696    0.54510    1.000
    N1094    N        0.19117    0.25105    0.51046    1.000
    Si1095   Si       0.21740    0.14193    0.49809    1.000
    Si1096   Si       0.19846    0.05264    0.72856    1.000
    Si1097   Si       0.20503    0.12167    0.63427    1.000
    N1098    N        0.22088    0.03561    0.69486    1.000
    Si1099   Si       0.17393    0.10714    0.74489    1.000
    N1100    N        0.21455    0.09103    0.74656    1.000
    N1101    N        0.18148    0.20727    0.68968    1.000
    N1102    N        0.16997    0.14607    0.72666    1.000
    Si1103   Si       0.21571    0.23050    0.66423    1.000
    N1104    N        0.17527    0.14909    0.65237    1.000
    Si1105   Si       0.18687    0.16530    0.69103    1.000
    Si1106   Si       0.18878    0.10298    0.81841    1.000
    N1107    N        0.20140    0.02368    0.76167    1.000
    N1108    N        0.16610    0.07366    0.84184    1.000
    N1109    N        0.21870    0.03235    0.86588    1.000
    N1110    N        0.16156    0.11257    0.78636    1.000
    N1111    N        0.18654    0.13744    0.84522    1.000
    Si1112   Si       0.19663    0.21536    0.77631    1.000
    N1113    N        0.20118    0.19622    0.81542    1.000
    Si1114   Si       0.17013    0.17654    0.83878    1.000
    Si1115   Si       0.19445    0.07977    0.98596    1.000
    N1116    N        0.19047    0.10464    0.95086    1.000
    Si1117   Si       0.19191    0.06399    0.87454    1.000
    N1118    N        0.17011    0.05234    0.91148    1.000
    N1119    N        0.20443    0.03553    0.98996    1.000
    Si1120   Si       0.21943    0.13354    0.87384    1.000
    N1121    N        0.19323    0.25744    0.91453    1.000
    N1122    N        0.21194    0.15856    0.90822    1.000
    Si1123   Si       0.19742    0.24140    0.87455    1.000
    Si1124   Si       0.20805    0.14430    0.94720    1.000
    N1125    N        0.20955    0.33384    0.08690    1.000
    N1126    N        0.19639    0.29248    0.03301    1.000
    Si1127   Si       0.17236    0.32664    0.10894    1.000
    Si1128   Si       0.21512    0.42739    0.07628    1.000
    Si1129   Si       0.17680    0.41667    0.02639    1.000
    N1130    N        0.17451    0.44080    0.06134    1.000
    N1131    N        0.21766    0.40265    0.03943    1.000
    N1132    N        0.20780    0.46675    0.00137    1.000
    Si1133   Si       0.19251    0.50767    0.00592    1.000
    N1134    N        0.21008    0.26089    0.18333    1.000
    Si1135   Si       0.19965    0.33217    0.22856    1.000
    N1136    N        0.17615    0.31014    0.15001    1.000
    Si1137   Si       0.21607    0.30063    0.16663    1.000
    N1138    N        0.22427    0.33298    0.19400    1.000
    Si1139   Si       0.16823    0.42461    0.19271    1.000
    N1140    N        0.20653    0.45514    0.12787    1.000
    N1141    N        0.17648    0.39659    0.16029    1.000
    Si1142   Si       0.17637    0.48178    0.14204    1.000
    N1143    N        0.19409    0.44190    0.22509    1.000
    Si1144   Si       0.21268    0.41522    0.14419    1.000
    N1145    N        0.18156    0.28102    0.31570    1.000
    Si1146   Si       0.19086    0.31140    0.34594    1.000
    N1147    N        0.20950    0.34338    0.32550    1.000
    Si1148   Si       0.21705    0.27589    0.29099    1.000
    N1149    N        0.21579    0.30936    0.26331    1.000
    Si1150   Si       0.18619    0.37836    0.34085    1.000
    N1151    N        0.18851    0.37237    0.24395    1.000
    Si1152   Si       0.17552    0.43658    0.31770    1.000
    N1153    N        0.18145    0.47560    0.34180    1.000
    N1154    N        0.20923    0.40927    0.31551    1.000
    N1155    N        0.20116    0.48741    0.26442    1.000
    Si1156   Si       0.21307    0.50568    0.34632    1.000
    Si1157   Si       0.16710    0.46496    0.25054    1.000
    N1158    N        0.20989    0.31519    0.49393    1.000
    Si1159   Si       0.18304    0.34381    0.40012    1.000
    N1160    N        0.20611    0.36050    0.43783    1.000
    N1161    N        0.20712    0.30982    0.39070    1.000
    Si1162   Si       0.21764    0.27244    0.48478    1.000
    N1163    N        0.19689    0.38207    0.38159    1.000
    Si1164   Si       0.16777    0.36928    0.45773    1.000
    Si1165   Si       0.17546    0.43269    0.49019    1.000
    N1166    N        0.21654    0.43988    0.41953    1.000
    N1167    N        0.17934    0.47163    0.47001    1.000
    Si1168   Si       0.22146    0.39579    0.41410    1.000
    Si1169   Si       0.17320    0.44904    0.43023    1.000
    N1170    N        0.16403    0.41148    0.45353    1.000
    Si1171   Si       0.18516    0.33539    0.52331    1.000
    Si1172   Si       0.21646    0.35901    0.59246    1.000
    N1173    N        0.21219    0.36137    0.54804    1.000
    N1174    N        0.17433    0.35474    0.60912    1.000
    Si1175   Si       0.21734    0.28171    0.60995    1.000
    N1176    N        0.19446    0.26183    0.57769    1.000
    Si1177   Si       0.20031    0.47716    0.58216    1.000
    N1178    N        0.21432    0.41792    0.49993    1.000
    N1179    N        0.21483    0.47095    0.54318    1.000
    N1180    N        0.19510    0.37388    0.67906    1.000
    N1181    N        0.19359    0.32142    0.72519    1.000
    Si1182   Si       0.19538    0.36767    0.72261    1.000
    Si1183   Si       0.16574    0.35273    0.65333    1.000
    N1184    N        0.19500    0.25972    0.63956    1.000
    N1185    N        0.18982    0.43873    0.65603    1.000
    Si1186   Si       0.18285    0.45635    0.69623    1.000
    N1187    N        0.18019    0.42269    0.72156    1.000
    N1188    N        0.21618    0.48240    0.69665    1.000
    Si1189   Si       0.21418    0.40390    0.65642    1.000
    N1190    N        0.19561    0.27494    0.84802    1.000
    Si1191   Si       0.19230    0.35129    0.79470    1.000
    Si1192   Si       0.21208    0.28214    0.80902    1.000
    N1193    N        0.17412    0.37238    0.76252    1.000
    N1194    N        0.16809    0.32657    0.81949    1.000
    N1195    N        0.18705    0.25807    0.78198    1.000
    N1196    N        0.20742    0.38459    0.81887    1.000
    N1197    N        0.18856    0.49754    0.83074    1.000
    Si1198   Si       0.19653    0.47593    0.79274    1.000
    Si1199   Si       0.17538    0.41273    0.82735    1.000
    N1200    N        0.17203    0.43845    0.79180    1.000
    N1201    N        0.18072    0.43513    0.86461    1.000
    N1202    N        0.18964    0.50143    0.75996    1.000
    Si1203   Si       0.17407    0.47892    0.86771    1.000
    Si1204   Si       0.17289    0.37432    0.96000    1.000
    Si1205   Si       0.20644    0.33968    0.90794    1.000
    N1206    N        0.21639    0.36022    0.94957    1.000
    N1207    N        0.21196    0.37598    0.88571    1.000
    N1208    N        0.16797    0.32205    0.89648    1.000
    N1209    N        0.22869    0.28967    0.96777    1.000
    Si1210   Si       0.20363    0.26983    0.99584    1.000
    N1211    N        0.19948    0.49008    0.90451    1.000
    Si1212   Si       0.19368    0.44650    0.96435    1.000
    Si1213   Si       0.17845    0.50538    0.93773    1.000
    N1214    N        0.17706    0.41228    0.98293    1.000
    Si1215   Si       0.18899    0.40986    0.90010    1.000
    N1216    N        0.21742    0.43042    0.92792    1.000
    N1217    N        0.18170    0.54853    0.08282    1.000
    Si1218   Si       0.22201    0.53826    0.07496    1.000
    Si1219   Si       0.16828    0.57508    0.11649    1.000
    N1220    N        0.22887    0.51818    0.03377    1.000
    Si1221   Si       0.20355    0.66499    0.02669    1.000
    Si1222   Si       0.19153    0.73568    0.06161    1.000
    N1223    N        0.21393    0.69839    0.05716    1.000
    N1224    N        0.19253    0.69001    0.11825    1.000
    N1225    N        0.22790    0.63691    0.09799    1.000
    Si1226   Si       0.22295    0.53990    0.14633    1.000
    N1227    N        0.18778    0.51959    0.16202    1.000
    Si1228   Si       0.21151    0.62222    0.13464    1.000
    N1229    N        0.18356    0.61561    0.22122    1.000
    N1230    N        0.20881    0.58043    0.13525    1.000
    N1231    N        0.16879    0.62746    0.14872    1.000
    Si1232   Si       0.17284    0.75784    0.24003    1.000
    N1233    N        0.21364    0.73014    0.16448    1.000
    Si1234   Si       0.20572    0.68675    0.16062    1.000
    N1235    N        0.17151    0.68053    0.18774    1.000
    Si1236   Si       0.18547    0.75309    0.13967    1.000
    N1237    N        0.20857    0.73755    0.23410    1.000
    N1238    N        0.19138    0.62088    0.28705    1.000
    Si1239   Si       0.21360    0.52750    0.27296    1.000
    N1240    N        0.17439    0.54906    0.27962    1.000
    Si1241   Si       0.21336    0.62545    0.25118    1.000
    N1242    N        0.20014    0.54179    0.36844    1.000
    Si1243   Si       0.19960    0.65482    0.31170    1.000
    N1244    N        0.17929    0.68923    0.29485    1.000
    N1245    N        0.18125    0.65285    0.35389    1.000
    Si1246   Si       0.20914    0.70536    0.26538    1.000
    Si1247   Si       0.21698    0.74207    0.33218    1.000
    Si1248   Si       0.18041    0.59765    0.42974    1.000
    N1249    N        0.17727    0.58671    0.47057    1.000
    N1250    N        0.21853    0.59116    0.41356    1.000
    N1251    N        0.22018    0.51348    0.42828    1.000
    Si1252   Si       0.16492    0.62694    0.48113    1.000
    Si1253   Si       0.18779    0.51245    0.45745    1.000
    N1254    N        0.16595    0.63834    0.43778    1.000
    N1255    N        0.20576    0.70991    0.47076    1.000
    Si1256   Si       0.22312    0.67417    0.49175    1.000
    Si1257   Si       0.18058    0.72794    0.44206    1.000
    Si1258   Si       0.19783    0.68102    0.38308    1.000
    N1259    N        0.17176    0.69843    0.41117    1.000
    N1260    N        0.19805    0.58266    0.53804    1.000
    N1261    N        0.18685    0.52182    0.57879    1.000
    Si1262   Si       0.17619    0.56342    0.50567    1.000
    Si1263   Si       0.21239    0.62360    0.54080    1.000
    Si1264   Si       0.21590    0.55492    0.56831    1.000
    N1265    N        0.19974    0.52758    0.49516    1.000
    Si1266   Si       0.17588    0.64427    0.60781    1.000
    Si1267   Si       0.20115    0.69455    0.55926    1.000
    N1268    N        0.19554    0.65088    0.57011    1.000
    N1269    N        0.19838    0.64136    0.50383    1.000
    N1270    N        0.21412    0.72029    0.59339    1.000
    N1271    N        0.18536    0.55206    0.72274    1.000
    Si1272   Si       0.17706    0.57443    0.68712    1.000
    N1273    N        0.21680    0.58133    0.67002    1.000
    Si1274   Si       0.21102    0.51517    0.72414    1.000
    N1275    N        0.19882    0.65623    0.64233    1.000
    Si1276   Si       0.18066    0.65348    0.68437    1.000
    Si1277   Si       0.17471    0.72339    0.72106    1.000
    N1278    N        0.20679    0.74916    0.70707    1.000
    Si1279   Si       0.19446    0.54211    0.83343    1.000
    N1280    N        0.18451    0.55964    0.79489    1.000
    Si1281   Si       0.18458    0.60382    0.78667    1.000
    N1282    N        0.20696    0.62723    0.81699    1.000
    Si1283   Si       0.16319    0.54328    0.75988    1.000
    N1284    N        0.19609    0.63233    0.75541    1.000
    N1285    N        0.20159    0.69575    0.82463    1.000
    Si1286   Si       0.19294    0.72409    0.79390    1.000
    Si1287   Si       0.18016    0.65881    0.83019    1.000
    N1288    N        0.17626    0.70416    0.75940    1.000
    Si1289   Si       0.20828    0.56988    0.96081    1.000
    N1290    N        0.20797    0.57047    0.91676    1.000
    N1291    N        0.19941    0.52756    0.96886    1.000
    N1292    N        0.17344    0.59398    0.96873    1.000
    Si1293   Si       0.16735    0.56854    0.90330    1.000
    Si1294   Si       0.16687    0.68343    0.90038    1.000
    Si1295   Si       0.17659    0.69952    0.96945    1.000
    Si1296   Si       0.21897    0.72746    0.91755    1.000
    N1297    N        0.21118    0.68759    0.99026    1.000
    N1298    N        0.18588    0.73150    0.94536    1.000
    N1299    N        0.20941    0.69266    0.89198    1.000
    Si1300   Si       0.20954    0.80502    0.01944    1.000
    N1301    N        0.19034    0.76685    0.03139    1.000
    N1302    N        0.16789    0.82486    0.02128    1.000
    N1303    N        0.20289    0.75615    0.09879    1.000
    N1304    N        0.17065    0.94382    0.05469    1.000
    Si1305   Si       0.20086    0.93532    0.02161    1.000
    N1306    N        0.19482    0.91832    0.10912    1.000
    N1307    N        0.19953    0.99208    0.08132    1.000
    N1308    N        0.18056    0.89907    0.00768    1.000
    Si1309   Si       0.21428    0.95051    0.08530    1.000
    N1310    N        0.18685    0.85086    0.12664    1.000
    N1311    N        0.18412    0.79217    0.16071    1.000
    Si1312   Si       0.21462    0.82296    0.14794    1.000
    N1313    N        0.17510    0.80001    0.22921    1.000
    N1314    N        0.19596    0.96327    0.17544    1.000
    Si1315   Si       0.18997    0.89150    0.14295    1.000
    Si1316   Si       0.16725    0.99599    0.17963    1.000
    N1317    N        0.21482    0.90053    0.17758    1.000
    Si1318   Si       0.18364    0.92551    0.19313    1.000
    N1319    N        0.17897    0.92725    0.23640    1.000
    N1320    N        0.18866    0.80938    0.29828    1.000
    Si1321   Si       0.19117    0.82772    0.25827    1.000
    Si1322   Si       0.21650    0.81559    0.33184    1.000
    N1323    N        0.16825    0.86398    0.25865    1.000
    N1324    N        0.17949    0.76097    0.34482    1.000
    N1325    N        0.19478    0.96426    0.28954    1.000
    Si1326   Si       0.18078    0.90311    0.27326    1.000
    N1327    N        0.21039    0.95143    0.35637    1.000
    Si1328   Si       0.22106    0.97910    0.32369    1.000
    Si1329   Si       0.18856    0.96846    0.24690    1.000
    N1330    N        0.22423    0.90002    0.27623    1.000
    N1331    N        0.19848    0.82067    0.37223    1.000
    N1332    N        0.19310    0.76458    0.41778    1.000
    Si1333   Si       0.18058    0.86144    0.38049    1.000
    N1334    N        0.19527    0.82845    0.45552    1.000
    Si1335   Si       0.17898    0.78342    0.38208    1.000
    Si1336   Si       0.21422    0.78978    0.44775    1.000
    N1337    N        0.20026    0.77130    0.48620    1.000
    N1338    N        0.22051    0.88119    0.38033    1.000
    Si1339   Si       0.22253    0.85233    0.47833    1.000
    Si1340   Si       0.17313    0.94994    0.37884    1.000
    Si1341   Si       0.21696    0.96471    0.44049    1.000
    N1342    N        0.20259    0.95237    0.48178    1.000
    N1343    N        0.17798    0.96749    0.41782    1.000
    N1344    N        0.20358    0.88778    0.49295    1.000
    N1345    N        0.20029    0.79397    0.57054    1.000
    N1346    N        0.18574    0.85588    0.60471    1.000
    Si1347   Si       0.20979    0.79666    0.52489    1.000
    Si1348   Si       0.21520    0.83015    0.58837    1.000
    N1349    N        0.16787    0.81335    0.51882    1.000
    Si1350   Si       0.19729    0.76028    0.60183    1.000
    N1351    N        0.17645    0.98908    0.53410    1.000
    Si1352   Si       0.17871    0.95231    0.55855    1.000
    N1353    N        0.21564    0.92950    0.54594    1.000
    Si1354   Si       0.22748    0.92405    0.50422    1.000
    N1355    N        0.19613    0.85625    0.73761    1.000
    N1356    N        0.21499    0.87342    0.67233    1.000
    N1357    N        0.17039    0.81314    0.68990    1.000
    Si1358   Si       0.18479    0.77245    0.67806    1.000
    N1359    N        0.20906    0.77185    0.64320    1.000
    Si1360   Si       0.18566    0.85241    0.69643    1.000
    Si1361   Si       0.19945    0.88664    0.63345    1.000
    N1362    N        0.19409    0.97018    0.62227    1.000
    N1363    N        0.18540    0.97882    0.71258    1.000
    Si1364   Si       0.21502    0.82506    0.82597    1.000
    N1365    N        0.17677    0.85542    0.80719    1.000
    N1366    N        0.18058    0.81010    0.85138    1.000
    N1367    N        0.19895    0.94396    0.76923    1.000
    Si1368   Si       0.18563    0.98403    0.75766    1.000
    Si1369   Si       0.19995    0.80083    0.89047    1.000
    Si1370   Si       0.19095    0.82763    0.94646    1.000
    N1371    N        0.17116    0.79443    0.92220    1.000
    N1372    N        0.21915    0.83502    0.91077    1.000
    N1373    N        0.21994    0.82243    0.97920    1.000
    N1374    N        0.22004    0.76102    0.89257    1.000
    Si1375   Si       0.17130    0.90035    0.96465    1.000
    Si1376   Si       0.18093    0.99962    0.98890    1.000
    N1377    N        0.18761    0.94411    0.88715    1.000
    Si1378   Si       0.18524    0.95478    0.93183    1.000
    N1379    N        0.20795    0.91591    0.94966    1.000
    N1380    N        0.20697    0.96634    0.99333    1.000
    N1381    N        0.25737    0.02558    0.05052    1.000
    Si1382   Si       0.24543    0.03090    0.00938    1.000
    Si1383   Si       0.26249    0.10474    0.00758    1.000
    N1384    N        0.27749    0.11513    0.04756    1.000
    N1385    N        0.24304    0.02959    0.11878    1.000
    N1386    N        0.22676    0.11338    0.08927    1.000
    Si1387   Si       0.25126    0.14425    0.07052    1.000
    N1388    N        0.27050    0.19730    0.01656    1.000
    N1389    N        0.27546    0.17745    0.08480    1.000
    Si1390   Si       0.22743    0.19074    0.01296    1.000
    Si1391   Si       0.26221    0.25531    0.08819    1.000
    N1392    N        0.22257    0.23604    0.08764    1.000
    N1393    N        0.28233    0.23258    0.12292    1.000
    Si1394   Si       0.26532    0.08199    0.21868    1.000
    N1395    N        0.27106    0.05758    0.18319    1.000
    Si1396   Si       0.23868    0.04333    0.16002    1.000
    N1397    N        0.28071    0.12037    0.20693    1.000
    N1398    N        0.22560    0.07948    0.23386    1.000
    N1399    N        0.25362    0.14270    0.13986    1.000
    Si1400   Si       0.24400    0.24617    0.15969    1.000
    Si1401   Si       0.27360    0.19834    0.19462    1.000
    N1402    N        0.22915    0.20522    0.14640    1.000
    Si1403   Si       0.26549    0.18953    0.12677    1.000
    N1404    N        0.23868    0.17384    0.20371    1.000
    Si1405   Si       0.26409    0.15312    0.23396    1.000
    N1406    N        0.27561    0.24017    0.19255    1.000
    Si1407   Si       0.26418    0.08896    0.34620    1.000
    N1408    N        0.24513    0.12774    0.33338    1.000
    Si1409   Si       0.27798    0.01721    0.31213    1.000
    N1410    N        0.25467    0.12829    0.26674    1.000
    N1411    N        0.24727    0.01453    0.27960    1.000
    N1412    N        0.28285    0.05986    0.31921    1.000
    N1413    N        0.25791    0.23080    0.33476    1.000
    Si1414   Si       0.23653    0.20576    0.30387    1.000
    Si1415   Si       0.27389    0.14366    0.30438    1.000
    N1416    N        0.27462    0.18459    0.29280    1.000
    N1417    N        0.22176    0.23683    0.27770    1.000
    N1418    N        0.23412    0.06674    0.37035    1.000
    Si1419   Si       0.26267    0.06053    0.40354    1.000
    Si1420   Si       0.26292    0.11143    0.45042    1.000
    N1421    N        0.24095    0.07302    0.44023    1.000
    Si1422   Si       0.22761    0.03983    0.46760    1.000
    N1423    N        0.23057    0.13459    0.43046    1.000
    N1424    N        0.25974    0.13342    0.49046    1.000
    Si1425   Si       0.26151    0.21509    0.37509    1.000
    N1426    N        0.25472    0.25620    0.39604    1.000
    Si1427   Si       0.25153    0.24367    0.43841    1.000
    N1428    N        0.23675    0.18009    0.37771    1.000
    Si1429   Si       0.22506    0.17650    0.41991    1.000
    N1430    N        0.25633    0.20058    0.43651    1.000
    N1431    N        0.25118    0.08748    0.57064    1.000
    Si1432   Si       0.26401    0.01753    0.52198    1.000
    N1433    N        0.27255    0.02759    0.56427    1.000
    Si1434   Si       0.26824    0.01303    0.60525    1.000
    Si1435   Si       0.24535    0.12926    0.56690    1.000
    N1436    N        0.22497    0.03421    0.51203    1.000
    N1437    N        0.25643    0.23202    0.54681    1.000
    N1438    N        0.23291    0.14268    0.60764    1.000
    Si1439   Si       0.27721    0.23747    0.58546    1.000
    Si1440   Si       0.28013    0.23320    0.51160    1.000
    N1441    N        0.28183    0.14891    0.55133    1.000
    N1442    N        0.23721    0.03816    0.62575    1.000
    N1443    N        0.23215    0.10026    0.66246    1.000
    Si1444   Si       0.24175    0.05753    0.66488    1.000
    Si1445   Si       0.25264    0.13287    0.68256    1.000
    N1446    N        0.23048    0.16591    0.69783    1.000
    Si1447   Si       0.24589    0.20095    0.71562    1.000
    Si1448   Si       0.25318    0.17630    0.62781    1.000
    N1449    N        0.24790    0.23666    0.69118    1.000
    N1450    N        0.27800    0.15381    0.65549    1.000
    N1451    N        0.22178    0.20438    0.62990    1.000
    Si1452   Si       0.24638    0.04568    0.83518    1.000
    N1453    N        0.26893    0.05516    0.76921    1.000
    Si1454   Si       0.24667    0.09176    0.77536    1.000
    Si1455   Si       0.24444    0.02112    0.76967    1.000
    N1456    N        0.22766    0.08181    0.81325    1.000
    N1457    N        0.26924    0.12988    0.77970    1.000
    N1458    N        0.28176    0.06646    0.85331    1.000
    N1459    N        0.23467    0.22213    0.87007    1.000
    N1460    N        0.24824    0.15105    0.84826    1.000
    Si1461   Si       0.26718    0.22318    0.77987    1.000
    Si1462   Si       0.23998    0.19404    0.83789    1.000
    N1463    N        0.27505    0.19394    0.81057    1.000
    N1464    N        0.23244    0.21165    0.75374    1.000
    Si1465   Si       0.28016    0.14896    0.81641    1.000
    N1466    N        0.24783    0.25510    0.80068    1.000
    N1467    N        0.22316    0.09185    0.88607    1.000
    N1468    N        0.26777    0.06435    0.99079    1.000
    Si1469   Si       0.26134    0.07163    0.89308    1.000
    N1470    N        0.26135    0.03303    0.91589    1.000
    N1471    N        0.22998    0.16764    0.97558    1.000
    Si1472   Si       0.26968    0.23955    0.88506    1.000
    N1473    N        0.26449    0.25047    0.92629    1.000
    Si1474   Si       0.27488    0.17323    0.98208    1.000
    N1475    N        0.25918    0.29260    0.06743    1.000
    Si1476   Si       0.24209    0.35927    0.10299    1.000
    N1477    N        0.24203    0.34200    0.01395    1.000
    Si1478   Si       0.22713    0.31810    0.04956    1.000
    N1479    N        0.27562    0.35921    0.07536    1.000
    Si1480   Si       0.25077    0.38422    0.01962    1.000
    Si1481   Si       0.24072    0.47552    0.02893    1.000
    N1482    N        0.24119    0.46121    0.07064    1.000
    Si1483   Si       0.24166    0.47508    0.11126    1.000
    N1484    N        0.27588    0.47102    0.00501    1.000
    N1485    N        0.22619    0.39946    0.10606    1.000
    N1486    N        0.28414    0.40736    0.03602    1.000
    N1487    N        0.26058    0.35001    0.14285    1.000
    N1488    N        0.24727    0.28510    0.14025    1.000
    Si1489   Si       0.24781    0.36774    0.18188    1.000
    N1490    N        0.28250    0.36869    0.20792    1.000
    Si1491   Si       0.26562    0.44905    0.17929    1.000
    N1492    N        0.24085    0.41096    0.17707    1.000
    Si1493   Si       0.23186    0.45932    0.24409    1.000
    N1494    N        0.27176    0.46128    0.13895    1.000
    N1495    N        0.24518    0.47748    0.20484    1.000
    N1496    N        0.26442    0.36578    0.29132    1.000
    Si1497   Si       0.23820    0.33212    0.29510    1.000
    N1498    N        0.25352    0.29333    0.31048    1.000
    Si1499   Si       0.24839    0.40725    0.29630    1.000
    N1500    N        0.26656    0.48100    0.26462    1.000
    Si1501   Si       0.27293    0.46525    0.34776    1.000
    N1502    N        0.25237    0.42109    0.25340    1.000
    N1503    N        0.27316    0.43017    0.32307    1.000
    N1504    N        0.24036    0.48195    0.37009    1.000
    N1505    N        0.25715    0.30947    0.43944    1.000
    Si1506   Si       0.24885    0.29916    0.39688    1.000
    Si1507   Si       0.23264    0.33596    0.46221    1.000
    N1508    N        0.25487    0.36718    0.48468    1.000
    N1509    N        0.25956    0.26232    0.48428    1.000
    N1510    N        0.27912    0.32725    0.37846    1.000
    N1511    N        0.26277    0.38704    0.41835    1.000
    N1512    N        0.28179    0.48121    0.42972    1.000
    Si1513   Si       0.23970    0.47651    0.41313    1.000
    N1514    N        0.23477    0.32206    0.61064    1.000
    N1515    N        0.25903    0.26527    0.61165    1.000
    Si1516   Si       0.23481    0.38420    0.51852    1.000
    N1517    N        0.26080    0.41095    0.54141    1.000
    Si1518   Si       0.24172    0.44532    0.52097    1.000
    Si1519   Si       0.27425    0.47792    0.61329    1.000
    N1520    N        0.22909    0.47394    0.61404    1.000
    N1521    N        0.23077    0.39120    0.61740    1.000
    Si1522   Si       0.22916    0.50488    0.52027    1.000
    N1523    N        0.25552    0.47992    0.49731    1.000
    Si1524   Si       0.27304    0.30611    0.62271    1.000
    N1525    N        0.26327    0.28845    0.73449    1.000
    Si1526   Si       0.27181    0.27192    0.69479    1.000
    N1527    N        0.27544    0.30758    0.66642    1.000
    N1528    N        0.23760    0.36250    0.73678    1.000
    Si1529   Si       0.23242    0.31954    0.74598    1.000
    N1530    N        0.25244    0.42537    0.66630    1.000
    Si1531   Si       0.27125    0.40633    0.62880    1.000
    N1532    N        0.27536    0.42381    0.74178    1.000
    Si1533   Si       0.23445    0.46499    0.65944    1.000
    N1534    N        0.27243    0.48927    0.65559    1.000
    N1535    N        0.26128    0.34456    0.84495    1.000
    Si1536   Si       0.27016    0.33017    0.80453    1.000
    N1537    N        0.22851    0.32002    0.79067    1.000
    Si1538   Si       0.23695    0.38063    0.85046    1.000
    N1539    N        0.28170    0.27375    0.86446    1.000
    Si1540   Si       0.27476    0.37931    0.74432    1.000
    N1541    N        0.25694    0.41727    0.85817    1.000
    Si1542   Si       0.25794    0.45448    0.83602    1.000
    N1543    N        0.23887    0.45946    0.79683    1.000
    Si1544   Si       0.27473    0.45087    0.77465    1.000
    N1545    N        0.25554    0.48468    0.86734    1.000
    N1546    N        0.28353    0.33038    0.95989    1.000
    Si1547   Si       0.27108    0.31460    0.87603    1.000
    Si1548   Si       0.22869    0.27606    0.92898    1.000
    N1549    N        0.23625    0.31082    0.90302    1.000
    Si1550   Si       0.24286    0.33019    0.97208    1.000
    N1551    N        0.27825    0.45668    0.91523    1.000
    Si1552   Si       0.24141    0.39630    0.94318    1.000
    N1553    N        0.25790    0.40593    0.98154    1.000
    Si1554   Si       0.23555    0.46535    0.90360    1.000
    N1555    N        0.27489    0.38866    0.91838    1.000
    Si1556   Si       0.24935    0.61573    0.06671    1.000
    Si1557   Si       0.25144    0.55413    0.02142    1.000
    N1558    N        0.24210    0.57318    0.06095    1.000
    N1559    N        0.23436    0.51801    0.10940    1.000
    Si1560   Si       0.25590    0.62009    0.99532    1.000
    N1561    N        0.23578    0.63514    0.03105    1.000
    N1562    N        0.26565    0.69745    0.10050    1.000
    Si1563   Si       0.22687    0.68163    0.09406    1.000
    N1564    N        0.28321    0.60183    0.15094    1.000
    Si1565   Si       0.25521    0.51820    0.20598    1.000
    N1566    N        0.25848    0.53985    0.16900    1.000
    N1567    N        0.23923    0.54300    0.23844    1.000
    Si1568   Si       0.26454    0.67427    0.23451    1.000
    N1569    N        0.23190    0.65137    0.16209    1.000
    Si1570   Si       0.23568    0.73901    0.20028    1.000
    Si1571   Si       0.27401    0.64065    0.16882    1.000
    N1572    N        0.26594    0.70759    0.20625    1.000
    N1573    N        0.23245    0.52167    0.31215    1.000
    N1574    N        0.24961    0.60459    0.25556    1.000
    Si1575   Si       0.27287    0.57077    0.24980    1.000
    Si1576   Si       0.27238    0.51252    0.29519    1.000
    N1577    N        0.22512    0.66775    0.24808    1.000
    N1578    N        0.24335    0.65215    0.31868    1.000
    N1579    N        0.23483    0.72888    0.29194    1.000
    Si1580   Si       0.27771    0.64367    0.34237    1.000
    Si1581   Si       0.27934    0.72381    0.28766    1.000
    N1582    N        0.22173    0.70987    0.36211    1.000
    N1583    N        0.27454    0.61468    0.37320    1.000
    N1584    N        0.27018    0.54893    0.39555    1.000
    Si1585   Si       0.25053    0.62068    0.40850    1.000
    N1586    N        0.27883    0.61319    0.44043    1.000
    Si1587   Si       0.22719    0.54939    0.40393    1.000
    Si1588   Si       0.27644    0.70242    0.45369    1.000
    Si1589   Si       0.25567    0.69234    0.38526    1.000
    N1590    N        0.26942    0.73712    0.48168    1.000
    N1591    N        0.26777    0.72080    0.41554    1.000
    N1592    N        0.26157    0.66715    0.47415    1.000
    N1593    N        0.23142    0.66047    0.39854    1.000
    N1594    N        0.24707    0.53276    0.54621    1.000
    N1595    N        0.24097    0.58142    0.59604    1.000
    Si1596   Si       0.27216    0.59768    0.56899    1.000
    N1597    N        0.25684    0.62677    0.54060    1.000
    Si1598   Si       0.25531    0.71402    0.60472    1.000
    N1599    N        0.27256    0.67686    0.58578    1.000
    N1600    N        0.23374    0.69374    0.53047    1.000
    Si1601   Si       0.26945    0.66806    0.54338    1.000
    Si1602   Si       0.22907    0.73974    0.49718    1.000
    N1603    N        0.27686    0.75000    0.59206    1.000
    Si1604   Si       0.24799    0.58968    0.63988    1.000
    N1605    N        0.24941    0.53539    0.72594    1.000
    N1606    N        0.25624    0.60183    0.72617    1.000
    Si1607   Si       0.24696    0.56887    0.70061    1.000
    N1608    N        0.27627    0.56631    0.66643    1.000
    N1609    N        0.26288    0.62958    0.64155    1.000
    Si1610   Si       0.23813    0.74763    0.73673    1.000
    N1611    N        0.26588    0.71535    0.72451    1.000
    Si1612   Si       0.23443    0.63794    0.73522    1.000
    N1613    N        0.26034    0.69781    0.64709    1.000
    Si1614   Si       0.23936    0.66203    0.65898    1.000
    Si1615   Si       0.27866    0.72222    0.68059    1.000
    N1616    N        0.22264    0.65720    0.69887    1.000
    N1617    N        0.27526    0.75917    0.65723    1.000
    N1618    N        0.26301    0.59683    0.79718    1.000
    N1619    N        0.23515    0.55842    0.84977    1.000
    Si1620   Si       0.27369    0.56900    0.82846    1.000
    Si1621   Si       0.28216    0.51680    0.86844    1.000
    Si1622   Si       0.24709    0.63878    0.80572    1.000
    Si1623   Si       0.23267    0.69030    0.85515    1.000
    N1624    N        0.25785    0.65803    0.76821    1.000
    N1625    N        0.26356    0.66052    0.84270    1.000
    N1626    N        0.26163    0.72261    0.85354    1.000
    N1627    N        0.22396    0.74944    0.77938    1.000
    Si1628   Si       0.24022    0.57338    0.88899    1.000
    N1629    N        0.25584    0.61301    0.89194    1.000
    N1630    N        0.27594    0.54994    0.89727    1.000
    N1631    N        0.23996    0.58035    0.98917    1.000
    Si1632   Si       0.27909    0.62143    0.92796    1.000
    Si1633   Si       0.25380    0.68742    0.97281    1.000
    N1634    N        0.25265    0.71767    0.94016    1.000
    N1635    N        0.25791    0.64579    0.95883    1.000
    N1636    N        0.25405    0.87096    0.02249    1.000
    N1637    N        0.23747    0.80867    0.05030    1.000
    Si1638   Si       0.23594    0.78201    0.08712    1.000
    Si1639   Si       0.27133    0.83633    0.04612    1.000
    N1640    N        0.27799    0.76843    0.08999    1.000
    N1641    N        0.24453    0.81012    0.12056    1.000
    Si1642   Si       0.26911    0.90806    0.03971    1.000
    N1643    N        0.23450    0.93634    0.04763    1.000
    N1644    N        0.25038    0.95709    0.11089    1.000
    Si1645   Si       0.27859    0.92648    0.11616    1.000
    Si1646   Si       0.25442    0.81924    0.21390    1.000
    N1647    N        0.25478    0.77840    0.19572    1.000
    N1648    N        0.23836    0.84100    0.18049    1.000
    Si1649   Si       0.25412    0.88255    0.18366    1.000
    N1650    N        0.23147    0.96561    0.23142    1.000
    N1651    N        0.26605    0.89652    0.22456    1.000
    Si1652   Si       0.23141    0.98230    0.18961    1.000
    Si1653   Si       0.26692    0.99472    0.12516    1.000
    N1654    N        0.27884    0.89818    0.15008    1.000
    N1655    N        0.26637    0.99476    0.16740    1.000
    N1656    N        0.23988    0.77900    0.33705    1.000
    Si1657   Si       0.24433    0.86336    0.28216    1.000
    Si1658   Si       0.25671    0.87339    0.35820    1.000
    N1659    N        0.23858    0.85193    0.32387    1.000
    N1660    N        0.23239    0.83312    0.25048    1.000
    Si1661   Si       0.28315    0.77521    0.34231    1.000
    N1662    N        0.26883    0.91482    0.35994    1.000
    N1663    N        0.26690    0.97977    0.33229    1.000
    Si1664   Si       0.26458    0.98706    0.25182    1.000
    N1665    N        0.28074    0.94934    0.26718    1.000
    Si1666   Si       0.24659    0.92666    0.24784    1.000
    Si1667   Si       0.28192    0.82585    0.44755    1.000
    N1668    N        0.25849    0.86118    0.45389    1.000
    N1669    N        0.25689    0.79041    0.43742    1.000
    Si1670   Si       0.26675    0.90471    0.44433    1.000
    N1671    N        0.23644    0.00194    0.44850    1.000
    Si1672   Si       0.23194    0.92309    0.38200    1.000
    N1673    N        0.23831    0.93160    0.42324    1.000
    N1674    N        0.26477    0.91961    0.48537    1.000
    Si1675   Si       0.27991    0.00507    0.45051    1.000
    N1676    N        0.24355    0.85799    0.56444    1.000
    Si1677   Si       0.27082    0.84072    0.53532    1.000
    N1678    N        0.23741    0.82552    0.50978    1.000
    Si1679   Si       0.27643    0.76787    0.55240    1.000
    N1680    N        0.24693    0.81956    0.61413    1.000
    N1681    N        0.23943    0.76230    0.53253    1.000
    Si1682   Si       0.23880    0.90091    0.57190    1.000
    N1683    N        0.25381    0.97350    0.59714    1.000
    N1684    N        0.27030    0.97479    0.52188    1.000
    Si1685   Si       0.27535    0.95934    0.56230    1.000
    N1686    N        0.23048    0.91026    0.61451    1.000
    N1687    N        0.27861    0.91675    0.55902    1.000
    Si1688   Si       0.24804    0.79223    0.64901    1.000
    N1689    N        0.24862    0.82017    0.68360    1.000
    Si1690   Si       0.25796    0.86655    0.68946    1.000
    N1691    N        0.26863    0.85526    0.73294    1.000
    Si1692   Si       0.27284    0.81455    0.71740    1.000
    N1693    N        0.26272    0.78296    0.74356    1.000
    Si1694   Si       0.27652    0.94425    0.68308    1.000
    Si1695   Si       0.23255    0.95138    0.62809    1.000
    N1696    N        0.25247    0.99280    0.73792    1.000
    N1697    N        0.24218    0.96748    0.66883    1.000
    Si1698   Si       0.22639    0.99265    0.70013    1.000
    N1699    N        0.26402    0.90917    0.70363    1.000
    Si1700   Si       0.25119    0.78280    0.78956    1.000
    Si1701   Si       0.23309    0.85427    0.75822    1.000
    N1702    N        0.23947    0.85351    0.84747    1.000
    N1703    N        0.23250    0.82308    0.78524    1.000
    N1704    N        0.23654    0.78564    0.83068    1.000
    Si1705   Si       0.25191    0.76245    0.86291    1.000
    N1706    N        0.24352    0.88914    0.78217    1.000
    Si1707   Si       0.25051    0.88989    0.82593    1.000
    Si1708   Si       0.23872    0.93336    0.78443    1.000
    Si1709   Si       0.26104    0.97427    0.83220    1.000
    N1710    N        0.24066    0.93344    0.82727    1.000
    N1711    N        0.28219    0.93756    0.77027    1.000
    N1712    N        0.24882    0.00888    0.81077    1.000
    Si1713   Si       0.25730    0.84700    0.98660    1.000
    N1714    N        0.26803    0.86957    0.95012    1.000
    Si1715   Si       0.25152    0.85706    0.88993    1.000
    N1716    N        0.25040    0.97481    0.87296    1.000
    N1717    N        0.24778    0.90339    0.89353    1.000
    Si1718   Si       0.23375    0.00502    0.89791    1.000
    Si1719   Si       0.22834    0.93628    0.87184    1.000
    N1720    N        0.26486    0.00186    0.98518    1.000
    N1721    N        0.26887    0.93578    0.95962    1.000
    Si1722   Si       0.24116    0.97042    0.96723    1.000
    Si1723   Si       0.24829    0.90637    0.93663    1.000
    N1724    N        0.21994    0.98151    0.93157    1.000
    Si1725   Si       0.31805    0.10388    0.05290    1.000
    N1726    N        0.32592    0.06036    0.06088    1.000
    Si1727   Si       0.30081    0.02454    0.06149    1.000
    N1728    N        0.33311    0.12295    0.08990    1.000
    Si1729   Si       0.29352    0.19882    0.05239    1.000
    N1730    N        0.29837    0.24184    0.06208    1.000
    Si1731   Si       0.32219    0.23298    0.10192    1.000
    N1732    N        0.33699    0.18851    0.04859    1.000
    N1733    N        0.33190    0.05799    0.20673    1.000
    Si1734   Si       0.29971    0.02425    0.18869    1.000
    N1735    N        0.31952    0.10732    0.15858    1.000
    Si1736   Si       0.32180    0.10014    0.19956    1.000
    N1737    N        0.29514    0.18385    0.23126    1.000
    Si1738   Si       0.28719    0.13599    0.16516    1.000
    Si1739   Si       0.33667    0.16912    0.22336    1.000
    N1740    N        0.29567    0.17977    0.16143    1.000
    Si1741   Si       0.33640    0.19880    0.15643    1.000
    N1742    N        0.31005    0.12050    0.31151    1.000
    Si1743   Si       0.30735    0.08276    0.29020    1.000
    N1744    N        0.29097    0.06882    0.25233    1.000
    N1745    N        0.33663    0.02690    0.35393    1.000
    Si1746   Si       0.32388    0.03660    0.24902    1.000
    Si1747   Si       0.30503    0.20357    0.27071    1.000
    N1748    N        0.30418    0.24702    0.28631    1.000
    N1749    N        0.30477    0.11315    0.44181    1.000
    Si1750   Si       0.32185    0.10732    0.40312    1.000
    N1751    N        0.28716    0.02500    0.41316    1.000
    N1752    N        0.28597    0.02938    0.48503    1.000
    N1753    N        0.28744    0.09190    0.38404    1.000
    Si1754   Si       0.33883    0.10598    0.46945    1.000
    Si1755   Si       0.32189    0.01072    0.39203    1.000
    N1756    N        0.33514    0.18300    0.44102    1.000
    Si1757   Si       0.29812    0.20463    0.45055    1.000
    N1758    N        0.30683    0.20880    0.38234    1.000
    N1759    N        0.33228    0.14242    0.37957    1.000
    N1760    N        0.29873    0.24873    0.43578    1.000
    N1761    N        0.28994    0.19471    0.49155    1.000
    Si1762   Si       0.33951    0.18147    0.39435    1.000
    Si1763   Si       0.31674    0.25053    0.39487    1.000
    N1764    N        0.31466    0.06997    0.53254    1.000
    N1765    N        0.31410    0.07099    0.60041    1.000
    Si1766   Si       0.28909    0.06895    0.56601    1.000
    Si1767   Si       0.32429    0.04279    0.50121    1.000
    N1768    N        0.32547    0.13659    0.60442    1.000
    Si1769   Si       0.30671    0.16734    0.58121    1.000
    Si1770   Si       0.29306    0.15417    0.50900    1.000
    N1771    N        0.32191    0.24956    0.51442    1.000
    N1772    N        0.31706    0.25266    0.57818    1.000
    N1773    N        0.33443    0.18591    0.55412    1.000
    N1774    N        0.33229    0.13915    0.49857    1.000
    Si1775   Si       0.33989    0.22991    0.54730    1.000
    N1776    N        0.28166    0.19705    0.60155    1.000
    N1777    N        0.33285    0.10419    0.66556    1.000
    N1778    N        0.33067    0.06253    0.72825    1.000
    Si1779   Si       0.31316    0.04867    0.63758    1.000
    Si1780   Si       0.30776    0.08373    0.69789    1.000
    N1781    N        0.28617    0.05866    0.66967    1.000
    N1782    N        0.28119    0.11618    0.71261    1.000
    N1783    N        0.30275    0.00689    0.62736    1.000
    Si1784   Si       0.31399    0.22208    0.72167    1.000
    Si1785   Si       0.28875    0.14665    0.74276    1.000
    Si1786   Si       0.31932    0.14155    0.64815    1.000
    N1787    N        0.28655    0.18715    0.72740    1.000
    Si1788   Si       0.32465    0.07139    0.83756    1.000
    Si1789   Si       0.31263    0.05039    0.76571    1.000
    N1790    N        0.32868    0.07979    0.79465    1.000
    N1791    N        0.33813    0.02876    0.84054    1.000
    N1792    N        0.33063    0.14195    0.75692    1.000
    N1793    N        0.31775    0.15457    0.83473    1.000
    N1794    N        0.32182    0.23500    0.82540    1.000
    N1795    N        0.30666    0.24062    0.76264    1.000
    Si1796   Si       0.30949    0.19726    0.83963    1.000
    Si1797   Si       0.30267    0.12242    0.94271    1.000
    N1798    N        0.32065    0.03713    0.96386    1.000
    N1799    N        0.28524    0.08608    0.92637    1.000
    N1800    N        0.28629    0.13223    0.98240    1.000
    Si1801   Si       0.28188    0.05242    0.95067    1.000
    N1802    N        0.30009    0.20792    0.88093    1.000
    N1803    N        0.30386    0.15038    0.91169    1.000
    Si1804   Si       0.29346    0.24352    0.95729    1.000
    N1805    N        0.33481    0.24697    0.94081    1.000
    Si1806   Si       0.31470    0.18949    0.91573    1.000
    N1807    N        0.29562    0.19881    0.95417    1.000
    N1808    N        0.32370    0.30770    0.04264    1.000
    Si1809   Si       0.29327    0.31808    0.07074    1.000
    Si1810   Si       0.31651    0.26592    0.03137    1.000
    N1811    N        0.31017    0.31201    0.11128    1.000
    N1812    N        0.32787    0.35541    0.99977    1.000
    N1813    N        0.33964    0.37568    0.06609    1.000
    Si1814   Si       0.30106    0.39336    0.07218    1.000
    N1815    N        0.31884    0.43162    0.08755    1.000
    N1816    N        0.33936    0.48914    0.00393    1.000
    Si1817   Si       0.28949    0.43063    0.99800    1.000
    N1818    N        0.32988    0.49441    0.11951    1.000
    N1819    N        0.30239    0.30428    0.18360    1.000
    Si1820   Si       0.31001    0.33490    0.21335    1.000
    Si1821   Si       0.31366    0.26242    0.19167    1.000
    Si1822   Si       0.28231    0.31210    0.14579    1.000
    N1823    N        0.33530    0.26003    0.23012    1.000
    Si1824   Si       0.28770    0.40481    0.23220    1.000
    Si1825   Si       0.31211    0.45480    0.12301    1.000
    Si1826   Si       0.29804    0.47810    0.23515    1.000
    N1827    N        0.29951    0.44100    0.21064    1.000
    N1828    N        0.33941    0.44116    0.15507    1.000
    Si1829   Si       0.34063    0.44233    0.19909    1.000
    Si1830   Si       0.32413    0.27894    0.26738    1.000
    N1831    N        0.31124    0.27452    0.35390    1.000
    Si1832   Si       0.31390    0.31837    0.35066    1.000
    Si1833   Si       0.30400    0.35172    0.27976    1.000
    N1834    N        0.33106    0.33700    0.31332    1.000
    N1835    N        0.30676    0.31786    0.25386    1.000
    Si1836   Si       0.28393    0.26285    0.32244    1.000
    N1837    N        0.31845    0.38875    0.25906    1.000
    Si1838   Si       0.31158    0.41834    0.34362    1.000
    N1839    N        0.29877    0.49258    0.32493    1.000
    N1840    N        0.33429    0.47362    0.26113    1.000
    Si1841   Si       0.33513    0.47761    0.30475    1.000
    N1842    N        0.31855    0.38437    0.36864    1.000
    Si1843   Si       0.29265    0.36443    0.39885    1.000
    N1844    N        0.31558    0.36647    0.43687    1.000
    N1845    N        0.32123    0.30815    0.47648    1.000
    Si1846   Si       0.28833    0.28516    0.46001    1.000
    Si1847   Si       0.33777    0.34773    0.46976    1.000
    Si1848   Si       0.28351    0.38736    0.45875    1.000
    N1849    N        0.32980    0.48380    0.47311    1.000
    Si1850   Si       0.28866    0.46761    0.47080    1.000
    N1851    N        0.30240    0.44869    0.37517    1.000
    Si1852   Si       0.31993    0.46867    0.40927    1.000
    N1853    N        0.29324    0.42551    0.47609    1.000
    Si1854   Si       0.32479    0.35927    0.60988    1.000
    N1855    N        0.31119    0.31894    0.60809    1.000
    Si1856   Si       0.33442    0.29246    0.58169    1.000
    N1857    N        0.32369    0.37409    0.50269    1.000
    N1858    N        0.31758    0.37897    0.57090    1.000
    N1859    N        0.33541    0.31318    0.54359    1.000
    Si1860   Si       0.33914    0.35793    0.53930    1.000
    N1861    N        0.32228    0.43955    0.53914    1.000
    Si1862   Si       0.29727    0.41579    0.56508    1.000
    Si1863   Si       0.32709    0.41711    0.50170    1.000
    N1864    N        0.28854    0.43699    0.60386    1.000
    N1865    N        0.31544    0.51063    0.53218    1.000
    Si1866   Si       0.34281    0.28923    0.70752    1.000
    N1867    N        0.29488    0.37629    0.70499    1.000
    Si1868   Si       0.30007    0.34440    0.67587    1.000
    N1869    N        0.29676    0.37375    0.63978    1.000
    N1870    N        0.33947    0.32506    0.68265    1.000
    N1871    N        0.31321    0.25968    0.69915    1.000
    N1872    N        0.33229    0.30822    0.74661    1.000
    Si1873   Si       0.32634    0.48604    0.68493    1.000
    N1874    N        0.31782    0.44383    0.68653    1.000
    Si1875   Si       0.28390    0.41899    0.69795    1.000
    N1876    N        0.29916    0.29851    0.80186    1.000
    Si1877   Si       0.31304    0.27489    0.83458    1.000
    N1878    N        0.29167    0.35843    0.77730    1.000
    Si1879   Si       0.33454    0.34594    0.76794    1.000
    Si1880   Si       0.29977    0.28354    0.76142    1.000
    N1881    N        0.29714    0.45223    0.81562    1.000
    Si1882   Si       0.31128    0.49486    0.80720    1.000
    Si1883   Si       0.33310    0.44284    0.83556    1.000
    N1884    N        0.29514    0.48834    0.76572    1.000
    Si1885   Si       0.30256    0.35552    0.93038    1.000
    N1886    N        0.30568    0.33062    0.89510    1.000
    Si1887   Si       0.31321    0.31404    0.98816    1.000
    N1888    N        0.33924    0.37903    0.93455    1.000
    N1889    N        0.29541    0.26785    0.99418    1.000
    Si1890   Si       0.28566    0.42195    0.89175    1.000
    N1891    N        0.32222    0.50482    0.88709    1.000
    N1892    N        0.32497    0.42295    0.87437    1.000
    Si1893   Si       0.30900    0.48533    0.92315    1.000
    N1894    N        0.33117    0.42243    0.98886    1.000
    Si1895   Si       0.30178    0.50622    0.99350    1.000
    Si1896   Si       0.30529    0.60012    0.11267    1.000
    N1897    N        0.30447    0.55559    0.10970    1.000
    N1898    N        0.29674    0.61298    0.01016    1.000
    N1899    N        0.29096    0.61949    0.07770    1.000
    Si1900   Si       0.31878    0.62799    0.04374    1.000
    N1901    N        0.29237    0.54546    0.01139    1.000
    Si1902   Si       0.33808    0.52986    0.09768    1.000
    N1903    N        0.33192    0.72454    0.09525    1.000
    N1904    N        0.32409    0.66957    0.03394    1.000
    Si1905   Si       0.28964    0.73108    0.10961    1.000
    Si1906   Si       0.33216    0.69742    0.99868    1.000
    N1907    N        0.29817    0.51561    0.21382    1.000
    N1908    N        0.30740    0.58191    0.22585    1.000
    Si1909   Si       0.32201    0.62184    0.21938    1.000
    N1910    N        0.33338    0.55229    0.16892    1.000
    Si1911   Si       0.32864    0.54479    0.21004    1.000
    Si1912   Si       0.29399    0.55688    0.15189    1.000
    Si1913   Si       0.32842    0.73898    0.23140    1.000
    N1914    N        0.29535    0.73674    0.15374    1.000
    N1915    N        0.30895    0.66668    0.15061    1.000
    Si1916   Si       0.30181    0.70241    0.17552    1.000
    N1917    N        0.33723    0.70615    0.20063    1.000
    N1918    N        0.28591    0.64424    0.21011    1.000
    N1919    N        0.31844    0.56490    0.34888    1.000
    N1920    N        0.29242    0.54761    0.28098    1.000
    Si1921   Si       0.32201    0.52149    0.34987    1.000
    Si1922   Si       0.33675    0.54851    0.28316    1.000
    Si1923   Si       0.33746    0.60085    0.33137    1.000
    N1924    N        0.31326    0.63433    0.32109    1.000
    Si1925   Si       0.32077    0.66379    0.28869    1.000
    Si1926   Si       0.31905    0.70758    0.34385    1.000
    N1927    N        0.30297    0.75264    0.26570    1.000
    N1928    N        0.29247    0.73625    0.32760    1.000
    N1929    N        0.29049    0.68127    0.36255    1.000
    N1930    N        0.28891    0.68648    0.27035    1.000
    N1931    N        0.33790    0.63879    0.25660    1.000
    N1932    N        0.34336    0.69478    0.31046    1.000
    N1933    N        0.33039    0.57683    0.41250    1.000
    Si1934   Si       0.30886    0.58477    0.44880    1.000
    N1935    N        0.32736    0.61119    0.47843    1.000
    Si1936   Si       0.29586    0.52296    0.42204    1.000
    N1937    N        0.30017    0.54514    0.46058    1.000
    Si1938   Si       0.29861    0.58088    0.38326    1.000
    Si1939   Si       0.32285    0.52491    0.49081    1.000
    N1940    N        0.32671    0.50904    0.39232    1.000
    Si1941   Si       0.29875    0.64444    0.46594    1.000
    N1942    N        0.32043    0.75302    0.44514    1.000
    N1943    N        0.31589    0.68135    0.44796    1.000
    N1944    N        0.30097    0.57219    0.55014    1.000
    N1945    N        0.30601    0.61636    0.59076    1.000
    Si1946   Si       0.33472    0.59004    0.57327    1.000
    Si1947   Si       0.33345    0.51754    0.60734    1.000
    Si1948   Si       0.28881    0.53216    0.55738    1.000
    N1949    N        0.29289    0.51311    0.59490    1.000
    N1950    N        0.30485    0.68547    0.52703    1.000
    Si1951   Si       0.33155    0.71767    0.52666    1.000
    Si1952   Si       0.29067    0.64906    0.61459    1.000
    N1953    N        0.31269    0.75693    0.52925    1.000
    Si1954   Si       0.29432    0.52879    0.66539    1.000
    Si1955   Si       0.28779    0.52467    0.74376    1.000
    N1956    N        0.30744    0.51627    0.70720    1.000
    N1957    N        0.33185    0.51187    0.64985    1.000
    Si1958   Si       0.33880    0.71807    0.72160    1.000
    N1959    N        0.32713    0.66168    0.63495    1.000
    N1960    N        0.32253    0.71984    0.68260    1.000
    N1961    N        0.33481    0.73149    0.61847    1.000
    N1962    N        0.32267    0.68060    0.73683    1.000
    N1963    N        0.30474    0.59687    0.84670    1.000
    N1964    N        0.30589    0.55864    0.76462    1.000
    N1965    N        0.29162    0.52838    0.82724    1.000
    N1966    N        0.31872    0.61558    0.75000    1.000
    Si1967   Si       0.34161    0.61901    0.83776    1.000
    Si1968   Si       0.34244    0.57981    0.76660    1.000
    Si1969   Si       0.28293    0.59577    0.75955    1.000
    Si1970   Si       0.28464    0.63124    0.86600    1.000
    Si1971   Si       0.29518    0.69315    0.83487    1.000
    N1972    N        0.32693    0.72280    0.85237    1.000
    N1973    N        0.29543    0.71023    0.79390    1.000
    Si1974   Si       0.32049    0.74632    0.79234    1.000
    N1975    N        0.32959    0.66092    0.83933    1.000
    N1976    N        0.32756    0.75202    0.74755    1.000
    Si1977   Si       0.28362    0.69033    0.75380    1.000
    N1978    N        0.29654    0.58701    0.94849    1.000
    Si1979   Si       0.30922    0.57807    0.98807    1.000
    N1980    N        0.30334    0.51645    0.95004    1.000
    Si1981   Si       0.30973    0.55125    0.92458    1.000
    Si1982   Si       0.29142    0.73271    0.95225    1.000
    N1983    N        0.31893    0.72806    0.92063    1.000
    Si1984   Si       0.31752    0.75006    0.88384    1.000
    N1985    N        0.29056    0.70311    0.98615    1.000
    N1986    N        0.30951    0.63973    0.90072    1.000
    N1987    N        0.29585    0.83902    0.08179    1.000
    Si1988   Si       0.31859    0.87660    0.08482    1.000
    N1989    N        0.28958    0.82546    0.00692    1.000
    Si1990   Si       0.28696    0.80876    0.11059    1.000
    N1991    N        0.30301    0.92640    0.01759    1.000
    N1992    N        0.28661    0.90544    0.07926    1.000
    N1993    N        0.31654    0.00316    0.02884    1.000
    Si1994   Si       0.34307    0.92892    0.04077    1.000
    N1995    N        0.30214    0.00703    0.10275    1.000
    Si1996   Si       0.33228    0.81646    0.22185    1.000
    N1997    N        0.32132    0.77567    0.20783    1.000
    N1998    N        0.31235    0.80726    0.14724    1.000
    N1999    N        0.29297    0.83564    0.22093    1.000
    Si2000   Si       0.29494    0.77557    0.17315    1.000
    Si2001   Si       0.29854    0.87349    0.24206    1.000
    Si2002   Si       0.32084    0.90925    0.15374    1.000
    N2003    N        0.33246    0.00281    0.16930    1.000
    N2004    N        0.31535    0.94585    0.13035    1.000
    Si2005   Si       0.33035    0.98701    0.12835    1.000
    N2006    N        0.33629    0.91711    0.19104    1.000
    N2007    N        0.29530    0.00702    0.22911    1.000
    Si2008   Si       0.32432    0.78364    0.28683    1.000
    Si2009   Si       0.30328    0.84708    0.31771    1.000
    N2010    N        0.29894    0.80403    0.31336    1.000
    N2011    N        0.29372    0.85036    0.35980    1.000
    N2012    N        0.28675    0.86898    0.28287    1.000
    N2013    N        0.34060    0.88113    0.24819    1.000
    Si2014   Si       0.29338    0.94852    0.34722    1.000
    N2015    N        0.32372    0.93565    0.31958    1.000
    Si2016   Si       0.31808    0.95931    0.28358    1.000
    N2017    N        0.31710    0.00238    0.29094    1.000
    Si2018   Si       0.30410    0.76436    0.48506    1.000
    N2019    N        0.30548    0.80995    0.48104    1.000
    N2020    N        0.29468    0.78500    0.38148    1.000
    Si2021   Si       0.31671    0.82207    0.38209    1.000
    N2022    N        0.31551    0.83656    0.42197    1.000
    Si2023   Si       0.33805    0.87156    0.43167    1.000
    Si2024   Si       0.28456    0.76127    0.41805    1.000
    Si2025   Si       0.32079    0.94557    0.42152    1.000
    Si2026   Si       0.29301    0.95019    0.49164    1.000
    N2027    N        0.30154    0.96840    0.45520    1.000
    N2028    N        0.30767    0.90433    0.43168    1.000
    N2029    N        0.31102    0.96875    0.38379    1.000
    N2030    N        0.30530    0.86442    0.52061    1.000
    N2031    N        0.30912    0.86587    0.60339    1.000
    N2032    N        0.29222    0.81056    0.55853    1.000
    Si2033   Si       0.33351    0.79339    0.54788    1.000
    Si2034   Si       0.28603    0.82972    0.59922    1.000
    Si2035   Si       0.33113    0.84084    0.49847    1.000
    N2036    N        0.31748    0.96607    0.57602    1.000
    N2037    N        0.32672    0.93767    0.51299    1.000
    Si2038   Si       0.31309    0.90309    0.53645    1.000
    Si2039   Si       0.31690    0.96751    0.62040    1.000
    N2040    N        0.30659    0.80444    0.62795    1.000
    N2041    N        0.29528    0.86392    0.66554    1.000
    N2042    N        0.31216    0.80753    0.70268    1.000
    Si2043   Si       0.32061    0.82665    0.66354    1.000
    Si2044   Si       0.30279    0.76269    0.62391    1.000
    Si2045   Si       0.33789    0.79151    0.73387    1.000
    Si2046   Si       0.33764    0.93251    0.71591    1.000
    Si2047   Si       0.27905    0.89947    0.74395    1.000
    Si2048   Si       0.30911    0.89434    0.63939    1.000
    N2049    N        0.32435    0.89499    0.73344    1.000
    N2050    N        0.29832    0.93548    0.64450    1.000
    N2051    N        0.30505    0.96155    0.70961    1.000
    N2052    N        0.29481    0.78160    0.80036    1.000
    N2053    N        0.32833    0.83295    0.84021    1.000
    Si2054   Si       0.33092    0.80573    0.80595    1.000
    Si2055   Si       0.31894    0.87390    0.85974    1.000
    Si2056   Si       0.30552    0.92710    0.80821    1.000
    N2057    N        0.30283    0.96567    0.82765    1.000
    N2058    N        0.29236    0.89392    0.83272    1.000
    Si2059   Si       0.33450    0.99373    0.81593    1.000
    N2060    N        0.31587    0.00434    0.77353    1.000
    Si2061   Si       0.29192    0.97705    0.74951    1.000
    Si2062   Si       0.31612    0.81265    0.87578    1.000
    Si2063   Si       0.32051    0.80558    0.98393    1.000
    N2064    N        0.33185    0.83427    0.95328    1.000
    N2065    N        0.29739    0.85229    0.89241    1.000
    Si2066   Si       0.30647    0.86598    0.93355    1.000
    N2067    N        0.29919    0.77027    0.96842    1.000
    N2068    N        0.28658    0.78114    0.87688    1.000
    N2069    N        0.34026    0.98948    0.90101    1.000
    N2070    N        0.32702    0.90370    0.94216    1.000
    Si2071   Si       0.30901    0.00202    0.98790    1.000
    N2072    N        0.32785    0.96814    0.96807    1.000
    Si2073   Si       0.30982    0.92787    0.97464    1.000
    Si2074   Si       0.36915    0.05646    0.07448    1.000
    Si2075   Si       0.38531    0.12715    0.03979    1.000
    N2076    N        0.36487    0.06277    0.11746    1.000
    N2077    N        0.39201    0.08359    0.04696    1.000
    N2078    N        0.39642    0.01919    0.07238    1.000
    N2079    N        0.34344    0.11827    0.02233    1.000
    Si2080   Si       0.36587    0.21276    0.02356    1.000
    N2081    N        0.39032    0.14908    0.07585    1.000
    Si2082   Si       0.34956    0.16324    0.08385    1.000
    Si2083   Si       0.39385    0.24887    0.07595    1.000
    N2084    N        0.35740    0.25491    0.02198    1.000
    N2085    N        0.34176    0.19539    0.11247    1.000
    N2086    N        0.39386    0.02561    0.17862    1.000
    Si2087   Si       0.34755    0.10185    0.12567    1.000
    N2088    N        0.38926    0.07622    0.23718    1.000
    Si2089   Si       0.39413    0.03384    0.13513    1.000
    Si2090   Si       0.38908    0.11882    0.23109    1.000
    N2091    N        0.36425    0.01545    0.24186    1.000
    Si2092   Si       0.37345    0.04627    0.21065    1.000
    N2093    N        0.38218    0.12361    0.14064    1.000
    N2094    N        0.34636    0.12728    0.22366    1.000
    N2095    N        0.34096    0.24049    0.16491    1.000
    Si2096   Si       0.39301    0.15229    0.17026    1.000
    N2097    N        0.36115    0.17729    0.18689    1.000
    N2098    N        0.37265    0.09161    0.34759    1.000
    Si2099   Si       0.38868    0.05678    0.27712    1.000
    N2100    N        0.38958    0.02360    0.30456    1.000
    Si2101   Si       0.34767    0.02397    0.31212    1.000
    Si2102   Si       0.34426    0.12421    0.33881    1.000
    N2103    N        0.34354    0.06083    0.28412    1.000
    Si2104   Si       0.37833    0.17034    0.28605    1.000
    N2105    N        0.36981    0.15539    0.32515    1.000
    N2106    N        0.34558    0.18737    0.26414    1.000
    N2107    N        0.40155    0.14174    0.26523    1.000
    Si2108   Si       0.39754    0.18193    0.34382    1.000
    N2109    N        0.39636    0.20423    0.30545    1.000
    Si2110   Si       0.36444    0.05721    0.37089    1.000
    N2111    N        0.35575    0.01184    0.42397    1.000
    N2112    N        0.37540    0.12485    0.45320    1.000
    N2113    N        0.35053    0.07686    0.40766    1.000
    N2114    N        0.35022    0.06358    0.47455    1.000
    Si2115   Si       0.37153    0.05295    0.43730    1.000
    Si2116   Si       0.39630    0.23244    0.39996    1.000
    N2117    N        0.37845    0.19625    0.38396    1.000
    Si2118   Si       0.36054    0.16457    0.46950    1.000
    N2119    N        0.35819    0.25839    0.40273    1.000
    N2120    N        0.37083    0.12057    0.55690    1.000
    Si2121   Si       0.34790    0.10230    0.59049    1.000
    N2122    N        0.38097    0.08826    0.61529    1.000
    N2123    N        0.39836    0.02007    0.59642    1.000
    N2124    N        0.34614    0.00527    0.51478    1.000
    Si2125   Si       0.35632    0.15404    0.53361    1.000
    N2126    N        0.38259    0.17580    0.50494    1.000
    N2127    N        0.38129    0.23947    0.55503    1.000
    Si2128   Si       0.37367    0.05568    0.72684    1.000
    N2129    N        0.35348    0.04180    0.65024    1.000
    Si2130   Si       0.36781    0.08213    0.65616    1.000
    N2131    N        0.39105    0.01733    0.73440    1.000
    N2132    N        0.39573    0.07582    0.69126    1.000
    Si2133   Si       0.37746    0.00868    0.63351    1.000
    N2134    N        0.35407    0.20931    0.72389    1.000
    Si2135   Si       0.38688    0.16850    0.68089    1.000
    Si2136   Si       0.39267    0.22742    0.71389    1.000
    N2137    N        0.38756    0.15274    0.72200    1.000
    N2138    N        0.35032    0.17044    0.65842    1.000
    Si2139   Si       0.35209    0.10965    0.77451    1.000
    N2140    N        0.38462    0.09158    0.75294    1.000
    N2141    N        0.37933    0.12867    0.80229    1.000
    N2142    N        0.34611    0.10164    0.86190    1.000
    Si2143   Si       0.35679    0.13719    0.83818    1.000
    N2144    N        0.38064    0.17194    0.84868    1.000
    N2145    N        0.36427    0.19439    0.78619    1.000
    Si2146   Si       0.36160    0.17396    0.74791    1.000
    Si2147   Si       0.34232    0.23212    0.78659    1.000
    Si2148   Si       0.36130    0.04994    0.95427    1.000
    N2149    N        0.37027    0.06485    0.91435    1.000
    Si2150   Si       0.35811    0.10544    0.90347    1.000
    Si2151   Si       0.36600    0.11241    0.98430    1.000
    N2152    N        0.38478    0.07420    0.98106    1.000
    N2153    N        0.34411    0.11541    0.94640    1.000
    N2154    N        0.38325    0.01210    0.95557    1.000
    Si2155   Si       0.39202    0.17492    0.88987    1.000
    N2156    N        0.39417    0.13190    0.89913    1.000
    N2157    N        0.36046    0.19144    0.91594    1.000
    N2158    N        0.39510    0.25061    0.93657    1.000
    Si2159   Si       0.36862    0.21996    0.94659    1.000
    N2160    N        0.37808    0.19946    0.98483    1.000
    N2161    N        0.37696    0.32882    0.09160    1.000
    Si2162   Si       0.38247    0.29066    0.01010    1.000
    N2163    N        0.38938    0.33681    0.02515    1.000
    Si2164   Si       0.35070    0.29848    0.11040    1.000
    Si2165   Si       0.36327    0.36872    0.10331    1.000
    Si2166   Si       0.34992    0.34566    0.03566    1.000
    N2167    N        0.35585    0.25830    0.09512    1.000
    N2168    N        0.38276    0.40974    0.10351    1.000
    N2169    N        0.37295    0.46876    0.06597    1.000
    Si2170   Si       0.36064    0.42456    0.06764    1.000
    Si2171   Si       0.36872    0.49903    0.03562    1.000
    N2172    N        0.39525    0.40899    0.04449    1.000
    Si2173   Si       0.37737    0.26398    0.24193    1.000
    Si2174   Si       0.37253    0.33878    0.17218    1.000
    N2175    N        0.36619    0.30114    0.14965    1.000
    N2176    N        0.35835    0.37298    0.14592    1.000
    N2177    N        0.35035    0.34961    0.21004    1.000
    N2178    N        0.39030    0.28567    0.20802    1.000
    Si2179   Si       0.37746    0.26326    0.17054    1.000
    Si2180   Si       0.35580    0.38168    0.23855    1.000
    Si2181   Si       0.36438    0.49481    0.23846    1.000
    Si2182   Si       0.37446    0.41606    0.14599    1.000
    N2183    N        0.39379    0.46990    0.13732    1.000
    N2184    N        0.35455    0.48654    0.19681    1.000
    N2185    N        0.36763    0.42021    0.22289    1.000
    Si2186   Si       0.35726    0.48549    0.15329    1.000
    N2187    N        0.36735    0.28106    0.28172    1.000
    Si2188   Si       0.37549    0.35179    0.30744    1.000
    N2189    N        0.38340    0.37228    0.27102    1.000
    Si2190   Si       0.39798    0.28782    0.31213    1.000
    N2191    N        0.39806    0.27775    0.35388    1.000
    N2192    N        0.37832    0.38258    0.33730    1.000
    Si2193   Si       0.38618    0.42449    0.33289    1.000
    N2194    N        0.34509    0.44117    0.32464    1.000
    Si2195   Si       0.35784    0.36822    0.37454    1.000
    N2196    N        0.34847    0.32702    0.37667    1.000
    N2197    N        0.37860    0.35882    0.46455    1.000
    Si2198   Si       0.37517    0.29508    0.38562    1.000
    N2199    N        0.40020    0.31207    0.41482    1.000
    N2200    N        0.38543    0.38446    0.40167    1.000
    N2201    N        0.35561    0.44851    0.42107    1.000
    N2202    N        0.39830    0.48892    0.46207    1.000
    Si2203   Si       0.38937    0.42723    0.40625    1.000
    N2204    N        0.36761    0.42369    0.48621    1.000
    Si2205   Si       0.36499    0.46082    0.46344    1.000
    Si2206   Si       0.39016    0.38613    0.49641    1.000
    N2207    N        0.37707    0.29150    0.59220    1.000
    N2208    N        0.38292    0.36536    0.53271    1.000
    Si2209   Si       0.39416    0.32673    0.60869    1.000
    N2210    N        0.36951    0.36109    0.61365    1.000
    Si2211   Si       0.34473    0.28707    0.50705    1.000
    N2212    N        0.38610    0.28935    0.49715    1.000
    N2213    N        0.38126    0.48462    0.52824    1.000
    Si2214   Si       0.38120    0.46592    0.61221    1.000
    N2215    N        0.35000    0.48375    0.58634    1.000
    Si2216   Si       0.34216    0.47724    0.54463    1.000
    N2217    N        0.38129    0.26949    0.70719    1.000
    Si2218   Si       0.37855    0.33954    0.67526    1.000
    Si2219   Si       0.38348    0.46899    0.72958    1.000
    N2220    N        0.37052    0.42839    0.72078    1.000
    Si2221   Si       0.38923    0.39447    0.63425    1.000
    Si2222   Si       0.38661    0.38599    0.71728    1.000
    N2223    N        0.37489    0.38256    0.67566    1.000
    N2224    N        0.36677    0.49109    0.69742    1.000
    N2225    N        0.36934    0.43550    0.64157    1.000
    N2226    N        0.39723    0.50008    0.63276    1.000
    Si2227   Si       0.35395    0.42309    0.67947    1.000
    Si2228   Si       0.37358    0.30122    0.81249    1.000
    N2229    N        0.35732    0.34094    0.80326    1.000
    N2230    N        0.37140    0.26383    0.79085    1.000
    N2231    N        0.34861    0.29434    0.84976    1.000
    Si2232   Si       0.36842    0.37576    0.82889    1.000
    N2233    N        0.35820    0.36675    0.86904    1.000
    N2234    N        0.36001    0.37689    0.75249    1.000
    Si2235   Si       0.36674    0.42202    0.76647    1.000
    N2236    N        0.36467    0.46819    0.77055    1.000
    N2237    N        0.35413    0.41136    0.80930    1.000
    Si2238   Si       0.38412    0.48926    0.80322    1.000
    N2239    N        0.34907    0.48524    0.83023    1.000
    Si2240   Si       0.35956    0.50774    0.86815    1.000
    Si2241   Si       0.36318    0.28133    0.94053    1.000
    N2242    N        0.37233    0.31243    0.91092    1.000
    N2243    N        0.35372    0.29826    0.97755    1.000
    Si2244   Si       0.34449    0.32596    0.87750    1.000
    Si2245   Si       0.34842    0.38539    0.97533    1.000
    Si2246   Si       0.35239    0.39815    0.89941    1.000
    N2247    N        0.39266    0.48677    0.88976    1.000
    Si2248   Si       0.38533    0.46183    0.92309    1.000
    Si2249   Si       0.35709    0.45864    0.98019    1.000
    N2250    N        0.39114    0.38868    0.97847    1.000
    N2251    N        0.39717    0.45319    0.96694    1.000
    N2252    N        0.38711    0.42098    0.91129    1.000
    N2253    N        0.34353    0.46502    0.93857    1.000
    Si2254   Si       0.36595    0.57149    0.03640    1.000
    N2255    N        0.35876    0.61345    0.05029    1.000
    N2256    N        0.35464    0.53403    0.05553    1.000
    N2257    N        0.37559    0.54588    0.11415    1.000
    Si2258   Si       0.38980    0.64419    0.04845    1.000
    N2259    N        0.37953    0.67717    0.07477    1.000
    Si2260   Si       0.36224    0.74993    0.11035    1.000
    N2261    N        0.34767    0.72764    0.02743    1.000
    N2262    N        0.39707    0.66421    0.01011    1.000
    Si2263   Si       0.34282    0.69894    0.06141    1.000
    Si2264   Si       0.36407    0.57337    0.14604    1.000
    Si2265   Si       0.39688    0.61806    0.20094    1.000
    N2266    N        0.39800    0.58417    0.17114    1.000
    N2267    N        0.39114    0.59790    0.24007    1.000
    N2268    N        0.35257    0.62749    0.18940    1.000
    N2269    N        0.34573    0.60857    0.12610    1.000
    N2270    N        0.35568    0.53779    0.24548    1.000
    N2271    N        0.40166    0.66071    0.21144    1.000
    Si2272   Si       0.37834    0.69033    0.18946    1.000
    N2273    N        0.37808    0.67317    0.14628    1.000
    Si2274   Si       0.34748    0.64497    0.14827    1.000
    N2275    N        0.40360    0.72698    0.19035    1.000
    Si2276   Si       0.37158    0.61773    0.27177    1.000
    N2277    N        0.35229    0.58628    0.29544    1.000
    N2278    N        0.35270    0.51842    0.31345    1.000
    Si2279   Si       0.39341    0.53278    0.32508    1.000
    N2280    N        0.39089    0.54911    0.36410    1.000
    N2281    N        0.36156    0.61324    0.36752    1.000
    Si2282   Si       0.39758    0.55681    0.25148    1.000
    Si2283   Si       0.36421    0.73104    0.29427    1.000
    N2284    N        0.36569    0.73597    0.25215    1.000
    N2285    N        0.39521    0.64567    0.29557    1.000
    N2286    N        0.38653    0.68219    0.36188    1.000
    N2287    N        0.40131    0.75874    0.36420    1.000
    Si2288   Si       0.36810    0.57697    0.39188    1.000
    N2289    N        0.39673    0.60781    0.49018    1.000
    Si2290   Si       0.39284    0.64219    0.37735    1.000
    Si2291   Si       0.34325    0.71555    0.44744    1.000
    N2292    N        0.37884    0.70895    0.42359    1.000
    Si2293   Si       0.38249    0.72056    0.38288    1.000
    N2294    N        0.35612    0.72179    0.48987    1.000
    N2295    N        0.34295    0.73384    0.37276    1.000
    N2296    N        0.36152    0.60657    0.54081    1.000
    N2297    N        0.34994    0.55633    0.59831    1.000
    Si2298   Si       0.35757    0.59055    0.50101    1.000
    N2299    N        0.35930    0.54835    0.49542    1.000
    Si2300   Si       0.39149    0.51599    0.49700    1.000
    N2301    N        0.36359    0.71491    0.55518    1.000
    Si2302   Si       0.36586    0.74247    0.59180    1.000
    N2303    N        0.38309    0.61374    0.62489    1.000
    N2304    N        0.35495    0.62395    0.69409    1.000
    Si2305   Si       0.38337    0.57074    0.62573    1.000
    Si2306   Si       0.37754    0.58582    0.70129    1.000
    N2307    N        0.37885    0.55822    0.66953    1.000
    Si2308   Si       0.38481    0.51581    0.67021    1.000
    N2309    N        0.37264    0.56707    0.73956    1.000
    N2310    N        0.38179    0.68246    0.65408    1.000
    Si2311   Si       0.34496    0.64293    0.73336    1.000
    Si2312   Si       0.36139    0.64376    0.65551    1.000
    N2313    N        0.38225    0.71553    0.72718    1.000
    Si2314   Si       0.34078    0.70130    0.64700    1.000
    N2315    N        0.35807    0.59885    0.80268    1.000
    N2316    N        0.37841    0.54721    0.86040    1.000
    Si2317   Si       0.39481    0.62335    0.79082    1.000
    Si2318   Si       0.35840    0.69250    0.85204    1.000
    N2319    N        0.38016    0.64875    0.75872    1.000
    N2320    N        0.39348    0.71358    0.83365    1.000
    N2321    N        0.37094    0.61680    0.87086    1.000
    N2322    N        0.35189    0.57392    0.99513    1.000
    N2323    N        0.35223    0.56637    0.92033    1.000
    Si2324   Si       0.38021    0.57819    0.88971    1.000
    Si2325   Si       0.37047    0.58485    0.95625    1.000
    N2326    N        0.36811    0.62665    0.94291    1.000
    N2327    N        0.36616    0.68209    0.89451    1.000
    Si2328   Si       0.35128    0.64093    0.90296    1.000
    N2329    N        0.38925    0.74208    0.92099    1.000
    Si2330   Si       0.38457    0.65670    0.96747    1.000
    Si2331   Si       0.35900    0.70966    0.92703    1.000
    N2332    N        0.35632    0.68944    0.96458    1.000
    N2333    N        0.36618    0.77870    0.07924    1.000
    N2334    N        0.35745    0.79736    0.00877    1.000
    Si2335   Si       0.39012    0.87731    0.05725    1.000
    Si2336   Si       0.39153    0.82388    0.01022    1.000
    Si2337   Si       0.36739    0.76533    0.03865    1.000
    Si2338   Si       0.39650    0.80980    0.08816    1.000
    N2339    N        0.39604    0.83562    0.05175    1.000
    N2340    N        0.34832    0.88868    0.05754    1.000
    N2341    N        0.35653    0.95761    0.06911    1.000
    Si2342   Si       0.38707    0.98106    0.08827    1.000
    N2343    N        0.36733    0.92348    0.00480    1.000
    Si2344   Si       0.40042    0.89799    0.99511    1.000
    N2345    N        0.38174    0.83164    0.12381    1.000
    Si2346   Si       0.38224    0.87374    0.12641    1.000
    Si2347   Si       0.35632    0.81001    0.15423    1.000
    N2348    N        0.36360    0.82779    0.19431    1.000
    N2349    N        0.36886    0.76893    0.14846    1.000
    Si2350   Si       0.39920    0.84854    0.21163    1.000
    N2351    N        0.33857    0.88137    0.12369    1.000
    N2352    N        0.39782    0.90265    0.15599    1.000
    N2353    N        0.39696    0.89394    0.21931    1.000
    Si2354   Si       0.38207    0.97618    0.24466    1.000
    N2355    N        0.38369    0.96011    0.20502    1.000
    Si2356   Si       0.37357    0.98724    0.17441    1.000
    Si2357   Si       0.35771    0.91644    0.22748    1.000
    N2358    N        0.37463    0.99115    0.12861    1.000
    Si2359   Si       0.36214    0.85289    0.27507    1.000
    Si2360   Si       0.35944    0.77127    0.35515    1.000
    N2361    N        0.35337    0.76737    0.31308    1.000
    N2362    N        0.34393    0.86469    0.31393    1.000
    N2363    N        0.34365    0.81493    0.26509    1.000
    N2364    N        0.35733    0.81024    0.37426    1.000
    N2365    N        0.37993    0.91350    0.35311    1.000
    N2366    N        0.35259    0.94749    0.26046    1.000
    Si2367   Si       0.35773    0.90819    0.31625    1.000
    N2368    N        0.39699    0.89728    0.29296    1.000
    Si2369   Si       0.39764    0.86870    0.48057    1.000
    Si2370   Si       0.38812    0.83564    0.38966    1.000
    N2371    N        0.37116    0.87248    0.40564    1.000
    N2372    N        0.35614    0.86601    0.47072    1.000
    Si2373   Si       0.38282    0.97980    0.43329    1.000
    Si2374   Si       0.38595    0.91165    0.39622    1.000
    N2375    N        0.36466    0.94364    0.41634    1.000
    N2376    N        0.40154    0.97799    0.47232    1.000
    N2377    N        0.35941    0.81241    0.52055    1.000
    N2378    N        0.37998    0.85020    0.59635    1.000
    N2379    N        0.35876    0.78277    0.58351    1.000
    Si2380   Si       0.37941    0.81105    0.61218    1.000
    Si2381   Si       0.35029    0.87906    0.59718    1.000
    Si2382   Si       0.39890    0.79811    0.51282    1.000
    N2383    N        0.38532    0.96169    0.54480    1.000
    Si2384   Si       0.38931    0.91688    0.54640    1.000
    N2385    N        0.35161    0.89713    0.55919    1.000
    Si2386   Si       0.38730    0.99275    0.51003    1.000
    Si2387   Si       0.34117    0.96807    0.54020    1.000
    N2388    N        0.37449    0.78219    0.71238    1.000
    N2389    N        0.36276    0.81763    0.65194    1.000
    Si2390   Si       0.38671    0.81724    0.68931    1.000
    N2391    N        0.37710    0.85100    0.71369    1.000
    Si2392   Si       0.38441    0.97526    0.72138    1.000
    Si2393   Si       0.37561    0.93579    0.64982    1.000
    N2394    N        0.36135    0.96886    0.62790    1.000
    N2395    N        0.36736    0.95042    0.69046    1.000
    N2396    N        0.35358    0.90086    0.63484    1.000
    N2397    N        0.35521    0.76881    0.80976    1.000
    N2398    N        0.38275    0.87830    0.76857    1.000
    Si2399   Si       0.34809    0.86060    0.74683    1.000
    Si2400   Si       0.39368    0.75776    0.82654    1.000
    N2401    N        0.33755    0.82407    0.76496    1.000
    N2402    N        0.34873    0.92178    0.80567    1.000
    Si2403   Si       0.36658    0.92925    0.84434    1.000
    Si2404   Si       0.37840    0.92060    0.77523    1.000
    N2405    N        0.36721    0.97171    0.83990    1.000
    N2406    N        0.36137    0.95198    0.74913    1.000
    Si2407   Si       0.36212    0.00693    0.86819    1.000
    Si2408   Si       0.37380    0.84366    0.94547    1.000
    Si2409   Si       0.38686    0.78068    0.90164    1.000
    N2410    N        0.38683    0.85882    0.98602    1.000
    N2411    N        0.39740    0.81154    0.92808    1.000
    N2412    N        0.38758    0.87851    0.92340    1.000
    N2413    N        0.34576    0.78242    0.88892    1.000
    N2414    N        0.34616    0.90513    0.87696    1.000
    N2415    N        0.38182    0.94520    0.93196    1.000
    Si2416   Si       0.36171    0.91040    0.91713    1.000
    Si2417   Si       0.35703    0.98037    0.93883    1.000
    N2418    N        0.42567    0.02721    0.01137    1.000
    N2419    N        0.44831    0.12041    0.10339    1.000
    Si2420   Si       0.41537    0.06776    0.01282    1.000
    Si2421   Si       0.43552    0.02301    0.05410    1.000
    N2422    N        0.45435    0.08317    0.99933    1.000
    Si2423   Si       0.45659    0.07871    0.10381    1.000
    Si2424   Si       0.41174    0.13928    0.11364    1.000
    N2425    N        0.45096    0.17894    0.01903    1.000
    Si2426   Si       0.44765    0.20905    0.05133    1.000
    N2427    N        0.42561    0.24097    0.10515    1.000
    N2428    N        0.40442    0.21602    0.04695    1.000
    N2429    N        0.39918    0.13747    0.00056    1.000
    N2430    N        0.43315    0.05263    0.13006    1.000
    Si2431   Si       0.45534    0.10590    0.20037    1.000
    N2432    N        0.41755    0.12795    0.19847    1.000
    N2433    N        0.40946    0.23474    0.24377    1.000
    N2434    N        0.41165    0.23574    0.17094    1.000
    N2435    N        0.41457    0.17567    0.13842    1.000
    Si2436   Si       0.43154    0.21434    0.13818    1.000
    Si2437   Si       0.43625    0.23520    0.20720    1.000
    N2438    N        0.42090    0.08300    0.29390    1.000
    Si2439   Si       0.43615    0.11918    0.27495    1.000
    N2440    N        0.45578    0.07945    0.35059    1.000
    N2441    N        0.45826    0.02109    0.29939    1.000
    Si2442   Si       0.45703    0.06552    0.31031    1.000
    Si2443   Si       0.41561    0.08942    0.36262    1.000
    Si2444   Si       0.42607    0.22648    0.28243    1.000
    N2445    N        0.43752    0.16547    0.34587    1.000
    N2446    N        0.44850    0.12668    0.46347    1.000
    Si2447   Si       0.45135    0.05630    0.45658    1.000
    N2448    N        0.41250    0.06829    0.44173    1.000
    Si2449   Si       0.41447    0.11135    0.44061    1.000
    N2450    N        0.42134    0.11707    0.39483    1.000
    N2451    N        0.40534    0.04426    0.37532    1.000
    Si2452   Si       0.42996    0.00837    0.37641    1.000
    Si2453   Si       0.44616    0.23242    0.47044    1.000
    N2454    N        0.43527    0.23065    0.37812    1.000
    Si2455   Si       0.45181    0.14811    0.38256    1.000
    N2456    N        0.42061    0.24585    0.43715    1.000
    N2457    N        0.45253    0.17817    0.41348    1.000
    N2458    N        0.44698    0.19022    0.48437    1.000
    N2459    N        0.42202    0.07534    0.56439    1.000
    Si2460   Si       0.44167    0.04956    0.53589    1.000
    Si2461   Si       0.41279    0.11684    0.56143    1.000
    Si2462   Si       0.41245    0.06090    0.60403    1.000
    N2463    N        0.41596    0.01644    0.53084    1.000
    N2464    N        0.44646    0.07022    0.49771    1.000
    Si2465   Si       0.45843    0.11180    0.50367    1.000
    N2466    N        0.43264    0.13622    0.52847    1.000
    N2467    N        0.43230    0.13784    0.59381    1.000
    Si2468   Si       0.42426    0.18000    0.51940    1.000
    N2469    N        0.44084    0.20052    0.55325    1.000
    Si2470   Si       0.45694    0.17244    0.58418    1.000
    N2471    N        0.44518    0.25411    0.50710    1.000
    N2472    N        0.41116    0.23593    0.62050    1.000
    N2473    N        0.44318    0.06122    0.63706    1.000
    Si2474   Si       0.42595    0.04789    0.67524    1.000
    Si2475   Si       0.40741    0.11545    0.71169    1.000
    N2476    N        0.45449    0.03513    0.70598    1.000
    N2477    N        0.44098    0.11648    0.73951    1.000
    Si2478   Si       0.43640    0.01001    0.73538    1.000
    N2479    N        0.45759    0.18295    0.62629    1.000
    Si2480   Si       0.44235    0.14187    0.63580    1.000
    Si2481   Si       0.43255    0.21393    0.64824    1.000
    N2482    N        0.41447    0.13800    0.66779    1.000
    N2483    N        0.40952    0.20513    0.68209    1.000
    Si2484   Si       0.41630    0.11449    0.77812    1.000
    N2485    N        0.44103    0.09912    0.80914    1.000
    Si2486   Si       0.45314    0.07014    0.83948    1.000
    Si2487   Si       0.44393    0.22476    0.85279    1.000
    N2488    N        0.43613    0.16142    0.79360    1.000
    N2489    N        0.42197    0.22224    0.81435    1.000
    Si2490   Si       0.40906    0.24580    0.77855    1.000
    Si2491   Si       0.45353    0.19542    0.76937    1.000
    N2492    N        0.41987    0.21403    0.74890    1.000
    N2493    N        0.45898    0.13796    0.86403    1.000
    Si2494   Si       0.39935    0.18119    0.81077    1.000
    N2495    N        0.43305    0.07813    0.87768    1.000
    Si2496   Si       0.42525    0.01530    0.96765    1.000
    Si2497   Si       0.41284    0.04953    0.90451    1.000
    Si2498   Si       0.43519    0.11778    0.89403    1.000
    N2499    N        0.43943    0.04781    0.94060    1.000
    N2500    N        0.40295    0.01359    0.88168    1.000
    N2501    N        0.45145    0.11673    0.93273    1.000
    N2502    N        0.43505    0.17978    0.95381    1.000
    Si2503   Si       0.45120    0.20757    0.92247    1.000
    N2504    N        0.42566    0.20378    0.88729    1.000
    Si2505   Si       0.41655    0.17584    0.99320    1.000
    N2506    N        0.43475    0.36143    0.05902    1.000
    Si2507   Si       0.44473    0.28329    0.02332    1.000
    Si2508   Si       0.41277    0.32413    0.06821    1.000
    N2509    N        0.40822    0.28407    0.05009    1.000
    N2510    N        0.44932    0.30993    0.09215    1.000
    Si2511   Si       0.41079    0.37760    0.01710    1.000
    N2512    N        0.44118    0.37926    0.11757    1.000
    Si2513   Si       0.42095    0.39817    0.08285    1.000
    N2514    N        0.43953    0.44060    0.08869    1.000
    N2515    N        0.45242    0.39135    0.00996    1.000
    Si2516   Si       0.40428    0.46549    0.09502    1.000
    Si2517   Si       0.45507    0.47603    0.06120    1.000
    N2518    N        0.45543    0.46267    0.01995    1.000
    N2519    N        0.42834    0.50174    0.08488    1.000
    N2520    N        0.40458    0.50622    0.01016    1.000
    N2521    N        0.41504    0.33850    0.17264    1.000
    Si2522   Si       0.42811    0.30657    0.20011    1.000
    Si2523   Si       0.43242    0.37684    0.16003    1.000
    N2524    N        0.44251    0.33081    0.23350    1.000
    N2525    N        0.45684    0.27472    0.19903    1.000
    Si2526   Si       0.44159    0.49710    0.23048    1.000
    N2527    N        0.40731    0.40982    0.17123    1.000
    N2528    N        0.42388    0.46875    0.20077    1.000
    Si2529   Si       0.42882    0.48268    0.16052    1.000
    N2530    N        0.43378    0.40684    0.23599    1.000
    Si2531   Si       0.40704    0.42922    0.20997    1.000
    N2532    N        0.41242    0.32818    0.31013    1.000
    N2533    N        0.43340    0.26407    0.30254    1.000
    Si2534   Si       0.44100    0.26511    0.35200    1.000
    Si2535   Si       0.45451    0.33972    0.31508    1.000
    N2536    N        0.45516    0.37626    0.29325    1.000
    Si2537   Si       0.41900    0.39505    0.27474    1.000
    N2538    N        0.41571    0.49485    0.32655    1.000
    Si2539   Si       0.42400    0.47175    0.29054    1.000
    Si2540   Si       0.43175    0.47504    0.36366    1.000
    N2541    N        0.41264    0.43098    0.29718    1.000
    N2542    N        0.40069    0.48942    0.25873    1.000
    N2543    N        0.40108    0.44354    0.36825    1.000
    Si2544   Si       0.43397    0.28625    0.42444    1.000
    N2545    N        0.44245    0.36803    0.43578    1.000
    N2546    N        0.45307    0.30346    0.45805    1.000
    Si2547   Si       0.40186    0.35359    0.42833    1.000
    N2548    N        0.45526    0.29112    0.38702    1.000
    N2549    N        0.42974    0.50133    0.39861    1.000
    Si2550   Si       0.43016    0.48028    0.43558    1.000
    N2551    N        0.43241    0.39878    0.49288    1.000
    Si2552   Si       0.44764    0.40828    0.45215    1.000
    N2553    N        0.42441    0.43717    0.43149    1.000
    N2554    N        0.42752    0.33763    0.58607    1.000
    Si2555   Si       0.42416    0.35624    0.54716    1.000
    N2556    N        0.44297    0.32650    0.52176    1.000
    N2557    N        0.44644    0.27197    0.57385    1.000
    Si2558   Si       0.40611    0.25915    0.58485    1.000
    Si2559   Si       0.42964    0.29382    0.49757    1.000
    N2560    N        0.43864    0.39579    0.55633    1.000
    Si2561   Si       0.44060    0.41891    0.59156    1.000
    Si2562   Si       0.41517    0.47755    0.55278    1.000
    N2563    N        0.44431    0.45990    0.52475    1.000
    N2564    N        0.40961    0.44866    0.58587    1.000
    Si2565   Si       0.45722    0.41716    0.52269    1.000
    N2566    N        0.40405    0.33673    0.71259    1.000
    Si2567   Si       0.44820    0.31525    0.65879    1.000
    N2568    N        0.45126    0.28834    0.69334    1.000
    Si2569   Si       0.41530    0.29336    0.71626    1.000
    Si2570   Si       0.44393    0.35683    0.71497    1.000
    N2571    N        0.40650    0.31703    0.64935    1.000
    N2572    N        0.43095    0.40146    0.62989    1.000
    Si2573   Si       0.43738    0.43081    0.74239    1.000
    N2574    N        0.42544    0.47070    0.73347    1.000
    Si2575   Si       0.44654    0.50384    0.72033    1.000
    N2576    N        0.42873    0.39584    0.71779    1.000
    Si2577   Si       0.43167    0.34674    0.83128    1.000
    N2578    N        0.41450    0.31533    0.80644    1.000
    Si2579   Si       0.44595    0.30764    0.77848    1.000
    N2580    N        0.42661    0.27798    0.75569    1.000
    N2581    N        0.41129    0.38655    0.83176    1.000
    N2582    N        0.46276    0.26292    0.86548    1.000
    Si2583   Si       0.42657    0.42448    0.81499    1.000
    N2584    N        0.41463    0.46584    0.82587    1.000
    N2585    N        0.41028    0.42035    0.77448    1.000
    Si2586   Si       0.42748    0.48394    0.86248    1.000
    N2587    N        0.42581    0.32624    0.86849    1.000
    N2588    N        0.43913    0.30227    0.92368    1.000
    N2589    N        0.42586    0.36810    0.92432    1.000
    Si2590   Si       0.41081    0.33148    0.90974    1.000
    Si2591   Si       0.43169    0.26909    0.95062    1.000
    N2592    N        0.42068    0.28231    0.98882    1.000
    Si2593   Si       0.45750    0.30025    0.88412    1.000
    N2594    N        0.45649    0.45636    0.88061    1.000
    Si2595   Si       0.40981    0.40552    0.94475    1.000
    N2596    N        0.44914    0.42248    0.93690    1.000
    N2597    N        0.45213    0.48660    0.95137    1.000
    Si2598   Si       0.42896    0.47461    0.98806    1.000
    Si2599   Si       0.44076    0.58903    0.06362    1.000
    N2600    N        0.44017    0.57524    0.10375    1.000
    N2601    N        0.41061    0.56965    0.03733    1.000
    Si2602   Si       0.41710    0.53616    0.11219    1.000
    N2603    N        0.43029    0.63073    0.05879    1.000
    Si2604   Si       0.42103    0.54793    0.00063    1.000
    Si2605   Si       0.45680    0.66505    0.06308    1.000
    Si2606   Si       0.42947    0.75006    0.08087    1.000
    N2607    N        0.44405    0.67602    0.10485    1.000
    N2608    N        0.41122    0.75656    0.04031    1.000
    N2609    N        0.40417    0.73079    0.11349    1.000
    N2610    N        0.45644    0.69237    0.02900    1.000
    Si2611   Si       0.40244    0.68739    0.11101    1.000
    Si2612   Si       0.43359    0.55969    0.18195    1.000
    N2613    N        0.42562    0.52502    0.15364    1.000
    N2614    N        0.42253    0.53914    0.22078    1.000
    N2615    N        0.44360    0.61172    0.20198    1.000
    Si2616   Si       0.40452    0.73849    0.23277    1.000
    Si2617   Si       0.43726    0.66983    0.23301    1.000
    Si2618   Si       0.40647    0.74839    0.15466    1.000
    N2619    N        0.41408    0.55512    0.29271    1.000
    Si2620   Si       0.45657    0.56635    0.29885    1.000
    N2621    N        0.42347    0.62765    0.35157    1.000
    Si2622   Si       0.45771    0.60732    0.36225    1.000
    Si2623   Si       0.43954    0.63759    0.30363    1.000
    N2624    N        0.44608    0.67905    0.31525    1.000
    N2625    N        0.45307    0.64004    0.25985    1.000
    N2626    N        0.43178    0.70971    0.25118    1.000
    Si2627   Si       0.40091    0.68108    0.32046    1.000
    Si2628   Si       0.45521    0.71384    0.28905    1.000
    N2629    N        0.40328    0.72450    0.31040    1.000
    Si2630   Si       0.42285    0.76065    0.32561    1.000
    N2631    N        0.45896    0.56665    0.38004    1.000
    Si2632   Si       0.42457    0.54469    0.39420    1.000
    Si2633   Si       0.41090    0.60726    0.44890    1.000
    N2634    N        0.40410    0.57208    0.42172    1.000
    Si2635   Si       0.41003    0.68017    0.43432    1.000
    N2636    N        0.45024    0.68566    0.41942    1.000
    N2637    N        0.41562    0.68454    0.47615    1.000
    N2638    N        0.43628    0.75689    0.42413    1.000
    N2639    N        0.39794    0.64020    0.42082    1.000
    Si2640   Si       0.39801    0.72154    0.49573    1.000
    N2641    N        0.42050    0.58994    0.55995    1.000
    Si2642   Si       0.44357    0.55336    0.55004    1.000
    Si2643   Si       0.41640    0.61851    0.59497    1.000
    N2644    N        0.43167    0.52755    0.51017    1.000
    Si2645   Si       0.40580    0.62126    0.53330    1.000
    N2646    N        0.43216    0.51247    0.57313    1.000
    Si2647   Si       0.43553    0.51595    0.61579    1.000
    N2648    N        0.45428    0.61927    0.61496    1.000
    N2649    N        0.44826    0.63909    0.51952    1.000
    Si2650   Si       0.44934    0.68023    0.50784    1.000
    N2651    N        0.42899    0.71245    0.53184    1.000
    Si2652   Si       0.44490    0.75363    0.52353    1.000
    N2653    N        0.40182    0.72088    0.60174    1.000
    N2654    N        0.40438    0.65103    0.56793    1.000
    Si2655   Si       0.40173    0.69559    0.56500    1.000
    N2656    N        0.42815    0.52089    0.68630    1.000
    N2657    N        0.42603    0.55964    0.62811    1.000
    Si2658   Si       0.43720    0.61627    0.73221    1.000
    N2659    N        0.42128    0.59518    0.69933    1.000
    Si2660   Si       0.43176    0.56135    0.67081    1.000
    Si2661   Si       0.40399    0.68318    0.74483    1.000
    N2662    N        0.41235    0.74065    0.66849    1.000
    N2663    N        0.43393    0.65939    0.72442    1.000
    Si2664   Si       0.41359    0.70755    0.63938    1.000
    N2665    N        0.45455    0.69304    0.64170    1.000
    Si2666   Si       0.40254    0.74908    0.71050    1.000
    N2667    N        0.41988    0.59748    0.76782    1.000
    N2668    N        0.44233    0.52278    0.85438    1.000
    N2669    N        0.43505    0.58930    0.83648    1.000
    Si2670   Si       0.41501    0.54999    0.83425    1.000
    Si2671   Si       0.41146    0.55522    0.76115    1.000
    Si2672   Si       0.41865    0.62297    0.86142    1.000
    N2673    N        0.39929    0.52995    0.79638    1.000
    N2674    N        0.44958    0.53859    0.74436    1.000
    Si2675   Si       0.44631    0.74312    0.76809    1.000
    Si2676   Si       0.42354    0.68818    0.81674    1.000
    N2677    N        0.42809    0.70553    0.77417    1.000
    N2678    N        0.40739    0.64871    0.82386    1.000
    Si2679   Si       0.44312    0.57796    0.93546    1.000
    N2680    N        0.42070    0.58983    0.89990    1.000
    N2681    N        0.41187    0.56897    0.96306    1.000
    N2682    N        0.43929    0.65388    0.88560    1.000
    N2683    N        0.42502    0.66631    0.95470    1.000
    Si2684   Si       0.45170    0.64930    0.92712    1.000
    N2685    N        0.43054    0.72919    0.97679    1.000
    N2686    N        0.45656    0.72496    0.89683    1.000
    Si2687   Si       0.43229    0.73718    0.93260    1.000
    Si2688   Si       0.43110    0.68832    0.99370    1.000
    N2689    N        0.43350    0.79158    0.09687    1.000
    Si2690   Si       0.43503    0.76202    0.00533    1.000
    N2691    N        0.40965    0.88653    0.09453    1.000
    N2692    N        0.42437    0.89326    0.03389    1.000
    N2693    N        0.42182    0.95551    0.09315    1.000
    Si2694   Si       0.45055    0.89439    0.07827    1.000
    Si2695   Si       0.45782    0.91640    0.01210    1.000
    Si2696   Si       0.44324    0.78801    0.20212    1.000
    N2697    N        0.41749    0.77950    0.23466    1.000
    N2698    N        0.43673    0.77795    0.15952    1.000
    N2699    N        0.43687    0.83325    0.19434    1.000
    N2700    N        0.43355    0.95532    0.16010    1.000
    N2701    N        0.44781    0.93329    0.21814    1.000
    Si2702   Si       0.45425    0.96885    0.24270    1.000
    Si2703   Si       0.42230    0.92561    0.12612    1.000
    Si2704   Si       0.41203    0.92681    0.19224    1.000
    N2705    N        0.42184    0.79983    0.30822    1.000
    Si2706   Si       0.44261    0.82498    0.33754    1.000
    Si2707   Si       0.42671    0.80809    0.26698    1.000
    N2708    N        0.41252    0.85013    0.35627    1.000
    N2709    N        0.45659    0.79462    0.36501    1.000
    N2710    N        0.40558    0.84497    0.25709    1.000
    Si2711   Si       0.41995    0.88677    0.25903    1.000
    Si2712   Si       0.41272    0.88894    0.33427    1.000
    Si2713   Si       0.42263    0.99873    0.30468    1.000
    N2714    N        0.42830    0.97965    0.34242    1.000
    N2715    N        0.41867    0.97610    0.26715    1.000
    N2716    N        0.44873    0.91138    0.33317    1.000
    Si2717   Si       0.44597    0.94420    0.36028    1.000
    Si2718   Si       0.42485    0.78066    0.39188    1.000
    Si2719   Si       0.42867    0.79032    0.45577    1.000
    N2720    N        0.40754    0.81043    0.41865    1.000
    N2721    N        0.41509    0.82713    0.48609    1.000
    Si2722   Si       0.45319    0.84479    0.46954    1.000
    N2723    N        0.41549    0.76168    0.49030    1.000
    N2724    N        0.43044    0.87512    0.45030    1.000
    N2725    N        0.42950    0.91869    0.39564    1.000
    Si2726   Si       0.44115    0.97814    0.45307    1.000
    Si2727   Si       0.45160    0.90815    0.43096    1.000
    N2728    N        0.42297    0.98808    0.41355    1.000
    N2729    N        0.42400    0.78653    0.54702    1.000
    Si2730   Si       0.41898    0.87032    0.60038    1.000
    Si2731   Si       0.44350    0.80419    0.58136    1.000
    N2732    N        0.44285    0.84820    0.57177    1.000
    Si2733   Si       0.44899    0.87709    0.53670    1.000
    N2734    N        0.41965    0.79612    0.61619    1.000
    N2735    N        0.40734    0.88885    0.51912    1.000
    N2736    N        0.41652    0.91023    0.58088    1.000
    Si2737   Si       0.41180    0.99123    0.56685    1.000
    N2738    N        0.45137    0.97266    0.57143    1.000
    Si2739   Si       0.45435    0.93114    0.58157    1.000
    N2740    N        0.42893    0.80978    0.68255    1.000
    N2741    N        0.43642    0.87244    0.63978    1.000
    Si2742   Si       0.43057    0.77580    0.65387    1.000
    Si2743   Si       0.45373    0.84115    0.66102    1.000
    Si2744   Si       0.41200    0.86529    0.73836    1.000
    N2745    N        0.43940    0.76508    0.73135    1.000
    Si2746   Si       0.45490    0.80456    0.72049    1.000
    N2747    N        0.42175    0.93850    0.65483    1.000
    Si2748   Si       0.43556    0.97569    0.67348    1.000
    N2749    N        0.42784    0.97006    0.71906    1.000
    Si2750   Si       0.45472    0.91147    0.65001    1.000
    N2751    N        0.44065    0.89434    0.72450    1.000
    Si2752   Si       0.44488    0.93625    0.74063    1.000
    N2753    N        0.40731    0.00889    0.66718    1.000
    Si2754   Si       0.44092    0.81067    0.79188    1.000
    N2755    N        0.42665    0.83752    0.82198    1.000
    N2756    N        0.42775    0.76869    0.79931    1.000
    Si2757   Si       0.43379    0.81604    0.85933    1.000
    Si2758   Si       0.42998    0.87558    0.84155    1.000
    N2759    N        0.43505    0.82859    0.75173    1.000
    N2760    N        0.40426    0.78374    0.86247    1.000
    N2761    N        0.41929    0.93292    0.77628    1.000
    Si2762   Si       0.43393    0.92858    0.81662    1.000
    N2763    N        0.44321    0.96819    0.82967    1.000
    Si2764   Si       0.43891    0.99570    0.86485    1.000
    N2765    N        0.40456    0.90978    0.84111    1.000
    N2766    N        0.46023    0.00504    0.77077    1.000
    N2767    N        0.43628    0.85402    0.87989    1.000
    Si2768   Si       0.43448    0.81055    0.94932    1.000
    Si2769   Si       0.43202    0.87699    0.91637    1.000
    N2770    N        0.45157    0.85055    0.94518    1.000
    N2771    N        0.45493    0.77597    0.93299    1.000
    N2772    N        0.42245    0.80101    0.99071    1.000
    N2773    N        0.44685    0.92029    0.91358    1.000
    N2774    N        0.43216    0.92028    0.97818    1.000
    N2775    N        0.44588    0.98045    0.95306    1.000
    Si2776   Si       0.42432    0.94379    0.94272    1.000
    Si2777   Si       0.48026    0.08323    0.03518    1.000
    N2778    N        0.48665    0.12489    0.04892    1.000
    N2779    N        0.50951    0.05173    0.02817    1.000
    Si2780   Si       0.50116    0.02030    0.05815    1.000
    N2781    N        0.46044    0.05824    0.06499    1.000
    Si2782   Si       0.47982    0.14517    0.08676    1.000
    Si2783   Si       0.48983    0.15969    0.01914    1.000
    Si2784   Si       0.49535    0.21279    0.10995    1.000
    N2785    N        0.47245    0.18881    0.08201    1.000
    N2786    N        0.51307    0.14296    0.11561    1.000
    N2787    N        0.49506    0.25564    0.10387    1.000
    N2788    N        0.46176    0.25127    0.04676    1.000
    Si2789   Si       0.47034    0.04584    0.15366    1.000
    Si2790   Si       0.49409    0.03286    0.21548    1.000
    Si2791   Si       0.50094    0.11747    0.14702    1.000
    N2792    N        0.49329    0.07508    0.12902    1.000
    N2793    N        0.47327    0.06485    0.19208    1.000
    N2794    N        0.46210    0.10697    0.24270    1.000
    N2795    N        0.47491    0.20381    0.14854    1.000
    Si2796   Si       0.48804    0.17947    0.18187    1.000
    N2797    N        0.46817    0.20470    0.21294    1.000
    N2798    N        0.47670    0.13631    0.17828    1.000
    N2799    N        0.49723    0.07587    0.29601    1.000
    Si2800   Si       0.49438    0.11080    0.27067    1.000
    N2801    N        0.51192    0.02535    0.25384    1.000
    N2802    N        0.46838    0.13550    0.29632    1.000
    Si2803   Si       0.46857    0.17209    0.31620    1.000
    Si2804   Si       0.48535    0.21353    0.25165    1.000
    N2805    N        0.51342    0.17338    0.32369    1.000
    N2806    N        0.46160    0.20356    0.28685    1.000
    N2807    N        0.47174    0.02057    0.37694    1.000
    Si2808   Si       0.48213    0.06341    0.38408    1.000
    N2809    N        0.48391    0.07024    0.42762    1.000
    N2810    N        0.46101    0.01371    0.46389    1.000
    N2811    N        0.48173    0.23023    0.44484    1.000
    N2812    N        0.49255    0.13451    0.37721    1.000
    N2813    N        0.50997    0.16827    0.45479    1.000
    Si2814   Si       0.46741    0.21733    0.40457    1.000
    N2815    N        0.50545    0.21665    0.38193    1.000
    Si2816   Si       0.46377    0.16585    0.45215    1.000
    N2817    N        0.49330    0.10839    0.53194    1.000
    N2818    N        0.48022    0.03784    0.55107    1.000
    Si2819   Si       0.50626    0.07202    0.55475    1.000
    N2820    N        0.50718    0.07957    0.59913    1.000
    N2821    N        0.49556    0.16786    0.57029    1.000
    N2822    N        0.50149    0.23474    0.55110    1.000
    Si2823   Si       0.45898    0.24057    0.54678    1.000
    Si2824   Si       0.48267    0.07882    0.63769    1.000
    Si2825   Si       0.49013    0.01914    0.68641    1.000
    N2826    N        0.50681    0.05680    0.66902    1.000
    N2827    N        0.51023    0.11735    0.71070    1.000
    N2828    N        0.47734    0.12075    0.65016    1.000
    Si2829   Si       0.48067    0.12999    0.74088    1.000
    N2830    N        0.49882    0.24203    0.72656    1.000
    N2831    N        0.47939    0.17466    0.74039    1.000
    N2832    N        0.50802    0.18030    0.68048    1.000
    Si2833   Si       0.49204    0.20200    0.64635    1.000
    Si2834   Si       0.50829    0.19968    0.72006    1.000
    N2835    N        0.46888    0.23208    0.66369    1.000
    Si2836   Si       0.50870    0.13801    0.67362    1.000
    N2837    N        0.49671    0.08185    0.83675    1.000
    N2838    N        0.50414    0.11585    0.77373    1.000
    N2839    N        0.45641    0.02690    0.83982    1.000
    N2840    N        0.48724    0.21964    0.78641    1.000
    N2841    N        0.48331    0.20546    0.85245    1.000
    N2842    N        0.50468    0.15148    0.82515    1.000
    Si2843   Si       0.50803    0.19504    0.81751    1.000
    Si2844   Si       0.50491    0.25614    0.76857    1.000
    Si2845   Si       0.50158    0.24388    0.86852    1.000
    Si2846   Si       0.49194    0.16683    0.87109    1.000
    Si2847   Si       0.46335    0.13685    0.81978    1.000
    N2848    N        0.50614    0.07953    0.95400    1.000
    Si2849   Si       0.46247    0.08245    0.95644    1.000
    N2850    N        0.51295    0.01437    0.96236    1.000
    N2851    N        0.51047    0.04127    0.89168    1.000
    Si2852   Si       0.46974    0.15370    0.94666    1.000
    N2853    N        0.48736    0.18057    0.91380    1.000
    N2854    N        0.49691    0.14569    0.97878    1.000
    N2855    N        0.46576    0.24151    0.94392    1.000
    N2856    N        0.50016    0.35895    0.06596    1.000
    Si2857   Si       0.47174    0.35702    0.03226    1.000
    N2858    N        0.47117    0.31730    0.01336    1.000
    Si2859   Si       0.46674    0.35003    0.09616    1.000
    N2860    N        0.51078    0.36791    0.00256    1.000
    Si2861   Si       0.45780    0.26706    0.08666    1.000
    N2862    N        0.49439    0.47260    0.08151    1.000
    Si2863   Si       0.47876    0.42636    0.00888    1.000
    Si2864   Si       0.47697    0.44558    0.11238    1.000
    N2865    N        0.50996    0.42411    0.04121    1.000
    N2866    N        0.49894    0.34696    0.12607    1.000
    N2867    N        0.50839    0.31247    0.22283    1.000
    Si2868   Si       0.49493    0.27231    0.21721    1.000
    Si2869   Si       0.50111    0.37950    0.15272    1.000
    N2870    N        0.49969    0.37134    0.24164    1.000
    N2871    N        0.46865    0.38631    0.17972    1.000
    Si2872   Si       0.49106    0.46744    0.18568    1.000
    N2873    N        0.48978    0.43781    0.21862    1.000
    N2874    N        0.46701    0.46575    0.14968    1.000
    N2875    N        0.50626    0.41540    0.12782    1.000
    Si2876   Si       0.47243    0.39814    0.22101    1.000
    N2877    N        0.48066    0.50475    0.20436    1.000
    N2878    N        0.48111    0.31503    0.29003    1.000
    N2879    N        0.48196    0.34627    0.35079    1.000
    Si2880   Si       0.47468    0.27308    0.29539    1.000
    Si2881   Si       0.48029    0.33259    0.24961    1.000
    N2882    N        0.48612    0.26082    0.33495    1.000
    N2883    N        0.48445    0.25665    0.25673    1.000
    Si2884   Si       0.49783    0.38411    0.28397    1.000
    N2885    N        0.46926    0.46321    0.34561    1.000
    N2886    N        0.49880    0.42499    0.28670    1.000
    Si2887   Si       0.50204    0.44019    0.32653    1.000
    Si2888   Si       0.49642    0.45670    0.25828    1.000
    Si2889   Si       0.49156    0.49951    0.33693    1.000
    N2890    N        0.46105    0.47913    0.26573    1.000
    N2891    N        0.51800    0.41359    0.35614    1.000
    Si2892   Si       0.47250    0.34156    0.44975    1.000
    N2893    N        0.50219    0.33698    0.41759    1.000
    Si2894   Si       0.48915    0.31574    0.38067    1.000
    N2895    N        0.49981    0.34769    0.48475    1.000
    N2896    N        0.48807    0.41483    0.45926    1.000
    N2897    N        0.46783    0.48145    0.45977    1.000
    Si2898   Si       0.51196    0.39177    0.48921    1.000
    Si2899   Si       0.50288    0.45755    0.45461    1.000
    N2900    N        0.49517    0.33270    0.56330    1.000
    Si2901   Si       0.48539    0.32391    0.52135    1.000
    N2902    N        0.50891    0.29061    0.50871    1.000
    Si2903   Si       0.46122    0.31086    0.58590    1.000
    Si2904   Si       0.51074    0.41948    0.56549    1.000
    N2905    N        0.49650    0.40461    0.52789    1.000
    N2906    N        0.48052    0.43745    0.59200    1.000
    N2907    N        0.49894    0.50440    0.51739    1.000
    Si2908   Si       0.46015    0.49370    0.50163    1.000
    N2909    N        0.49630    0.37119    0.62386    1.000
    N2910    N        0.47686    0.30943    0.62633    1.000
    Si2911   Si       0.48418    0.26136    0.69092    1.000
    Si2912   Si       0.51103    0.33105    0.64536    1.000
    N2913    N        0.46084    0.35303    0.67405    1.000
    Si2914   Si       0.48958    0.45725    0.63075    1.000
    N2915    N        0.47324    0.49824    0.63219    1.000
    N2916    N        0.48158    0.43012    0.66482    1.000
    Si2917   Si       0.49399    0.44959    0.70325    1.000
    N2918    N        0.48463    0.49183    0.70123    1.000
    N2919    N        0.47985    0.43302    0.74241    1.000
    Si2920   Si       0.46862    0.38977    0.65113    1.000
    N2921    N        0.47324    0.34706    0.81855    1.000
    Si2922   Si       0.49626    0.33936    0.77862    1.000
    Si2923   Si       0.49530    0.35632    0.85435    1.000
    N2924    N        0.48707    0.29323    0.78165    1.000
    N2925    N        0.51382    0.38161    0.77733    1.000
    N2926    N        0.45922    0.33982    0.75258    1.000
    Si2927   Si       0.49724    0.42136    0.78071    1.000
    Si2928   Si       0.48410    0.43091    0.85586    1.000
    N2929    N        0.46951    0.42603    0.81245    1.000
    N2930    N        0.50749    0.30126    0.95139    1.000
    N2931    N        0.49241    0.32636    0.88564    1.000
    N2932    N        0.49888    0.36959    0.93777    1.000
    Si2933   Si       0.50648    0.32319    0.98822    1.000
    Si2934   Si       0.51437    0.33184    0.92263    1.000
    Si2935   Si       0.50745    0.25724    0.94788    1.000
    N2936    N        0.51025    0.46717    0.91958    1.000
    N2937    N        0.47727    0.39170    0.87428    1.000
    Si2938   Si       0.46478    0.38656    0.91553    1.000
    N2939    N        0.50467    0.43079    0.97435    1.000
    N2940    N        0.51303    0.50130    0.97784    1.000
    Si2941   Si       0.46782    0.45653    0.92348    1.000
    N2942    N        0.47908    0.58255    0.04620    1.000
    Si2943   Si       0.49476    0.56596    0.01042    1.000
    N2944    N        0.51218    0.57636    0.11034    1.000
    Si2945   Si       0.51450    0.57397    0.06675    1.000
    N2946    N        0.49632    0.65342    0.07669    1.000
    Si2947   Si       0.48388    0.72539    0.03640    1.000
    N2948    N        0.47390    0.73836    0.07840    1.000
    Si2949   Si       0.50935    0.73660    0.10588    1.000
    Si2950   Si       0.48461    0.66396    0.11807    1.000
    N2951    N        0.47591    0.76247    0.01730    1.000
    N2952    N        0.47411    0.56150    0.16534    1.000
    Si2953   Si       0.50438    0.53573    0.18719    1.000
    Si2954   Si       0.47373    0.58719    0.13093    1.000
    N2955    N        0.50350    0.62125    0.21274    1.000
    Si2956   Si       0.46768    0.60629    0.23575    1.000
    N2957    N        0.47800    0.62880    0.14320    1.000
    N2958    N        0.51554    0.72132    0.19012    1.000
    N2959    N        0.51063    0.69749    0.12759    1.000
    N2960    N        0.46845    0.67841    0.20315    1.000
    Si2961   Si       0.48380    0.71753    0.21935    1.000
    Si2962   Si       0.47313    0.63852    0.18451    1.000
    N2963    N        0.47975    0.53977    0.32220    1.000
    N2964    N        0.47199    0.57150    0.26010    1.000
    Si2965   Si       0.49512    0.55532    0.35929    1.000
    N2966    N        0.46853    0.60812    0.31856    1.000
    Si2967   Si       0.51142    0.61815    0.31906    1.000
    Si2968   Si       0.51498    0.56594    0.26081    1.000
    N2969    N        0.49368    0.70931    0.26133    1.000
    N2970    N        0.46318    0.74467    0.32057    1.000
    N2971    N        0.50973    0.51699    0.37128    1.000
    N2972    N        0.45681    0.61924    0.45626    1.000
    N2973    N        0.48272    0.62714    0.39307    1.000
    Si2974   Si       0.51007    0.75572    0.48405    1.000
    N2975    N        0.49020    0.73635    0.38619    1.000
    Si2976   Si       0.46516    0.72659    0.42093    1.000
    Si2977   Si       0.47449    0.64983    0.42964    1.000
    N2978    N        0.48726    0.73025    0.45620    1.000
    N2979    N        0.51579    0.66018    0.44105    1.000
    N2980    N        0.47477    0.55891    0.58215    1.000
    N2981    N        0.47973    0.57558    0.52122    1.000
    Si2982   Si       0.51040    0.54700    0.50842    1.000
    Si2983   Si       0.50463    0.57877    0.55786    1.000
    Si2984   Si       0.47499    0.61228    0.49934    1.000
    N2985    N        0.49128    0.68446    0.50253    1.000
    N2986    N        0.51165    0.66028    0.61761    1.000
    N2987    N        0.51498    0.71674    0.56593    1.000
    N2988    N        0.48666    0.75974    0.51929    1.000
    N2989    N        0.51691    0.58547    0.61914    1.000
    Si2990   Si       0.47265    0.57870    0.62028    1.000
    Si2991   Si       0.48667    0.52016    0.66759    1.000
    N2992    N        0.47665    0.56658    0.66697    1.000
    Si2993   Si       0.49452    0.59969    0.69281    1.000
    N2994    N        0.47890    0.60237    0.73656    1.000
    Si2995   Si       0.48275    0.72132    0.65894    1.000
    N2996    N        0.48295    0.64022    0.67870    1.000
    Si2997   Si       0.50927    0.70850    0.73994    1.000
    N2998    N        0.48839    0.70761    0.69890    1.000
    Si2999   Si       0.47385    0.66776    0.70825    1.000
    Si3000   Si       0.47409    0.65325    0.63699    1.000
    N3001    N        0.48670    0.56460    0.79657    1.000
    Si3002   Si       0.47818    0.59284    0.82687    1.000
    Si3003   Si       0.48647    0.56232    0.75372    1.000
    N3004    N        0.49378    0.58124    0.86672    1.000
    Si3005   Si       0.49876    0.62894    0.76471    1.000
    N3006    N        0.49110    0.63237    0.80787    1.000
    N3007    N        0.48881    0.73827    0.76436    1.000
    Si3008   Si       0.50401    0.67003    0.82595    1.000
    N3009    N        0.46320    0.68911    0.83360    1.000
    N3010    N        0.51512    0.68825    0.86654    1.000
    N3011    N        0.49779    0.66730    0.74495    1.000
    Si3012   Si       0.47167    0.54270    0.87815    1.000
    Si3013   Si       0.47842    0.52044    0.95825    1.000
    N3014    N        0.46586    0.61245    0.94698    1.000
    N3015    N        0.50947    0.52263    0.87836    1.000
    Si3016   Si       0.50620    0.62420    0.96281    1.000
    N3017    N        0.46859    0.54468    0.92300    1.000
    N3018    N        0.46312    0.54297    0.99344    1.000
    N3019    N        0.51842    0.58469    0.97977    1.000
    N3020    N        0.48930    0.66642    0.91952    1.000
    N3021    N        0.50745    0.65346    0.99585    1.000
    Si3022   Si       0.47060    0.68823    0.87825    1.000
    Si3023   Si       0.49454    0.85824    0.02936    1.000
    N3024    N        0.47971    0.86284    0.07075    1.000
    Si3025   Si       0.50660    0.85227    0.10544    1.000
    Si3026   Si       0.50975    0.78465    0.00315    1.000
    N3027    N        0.49335    0.82404    0.00019    1.000
    Si3028   Si       0.46535    0.95639    0.08459    1.000
    N3029    N        0.47246    0.92697    0.05438    1.000
    Si3030   Si       0.50573    0.95434    0.03707    1.000
    N3031    N        0.50885    0.95759    0.09929    1.000
    N3032    N        0.46740    0.99195    0.05686    1.000
    N3033    N        0.46261    0.91454    0.11501    1.000
    N3034    N        0.48774    0.88674    0.99795    1.000
    N3035    N        0.49047    0.94920    0.99773    1.000
    N3036    N        0.47794    0.76269    0.21164    1.000
    Si3037   Si       0.46275    0.79144    0.12781    1.000
    Si3038   Si       0.49837    0.79355    0.23569    1.000
    N3039    N        0.47890    0.83172    0.13308    1.000
    N3040    N        0.50343    0.82138    0.20176    1.000
    Si3041   Si       0.47498    0.84258    0.17559    1.000
    N3042    N        0.49727    0.76615    0.13668    1.000
    Si3043   Si       0.50995    0.76042    0.17643    1.000
    N3044    N        0.48050    0.00570    0.14542    1.000
    Si3045   Si       0.47785    0.90192    0.22109    1.000
    N3046    N        0.51584    0.91762    0.23141    1.000
    N3047    N        0.48068    0.88423    0.18082    1.000
    Si3048   Si       0.51807    0.99173    0.12464    1.000
    Si3049   Si       0.47052    0.97334    0.17223    1.000
    Si3050   Si       0.49258    0.90947    0.14705    1.000
    N3051    N        0.46938    0.99574    0.21060    1.000
    N3052    N        0.50518    0.94519    0.16913    1.000
    Si3053   Si       0.48585    0.84882    0.27784    1.000
    N3054    N        0.47237    0.85140    0.31975    1.000
    N3055    N        0.46915    0.81053    0.26277    1.000
    N3056    N        0.46211    0.87928    0.25550    1.000
    Si3057   Si       0.48599    0.76376    0.35302    1.000
    Si3058   Si       0.48700    0.89166    0.33220    1.000
    N3059    N        0.48597    0.96307    0.27187    1.000
    Si3060   Si       0.50346    0.99611    0.36210    1.000
    Si3061   Si       0.51644    0.93385    0.27085    1.000
    N3062    N        0.51595    0.90393    0.30201    1.000
    Si3063   Si       0.49616    0.00317    0.28859    1.000
    N3064    N        0.51170    0.88907    0.36850    1.000
    N3065    N        0.46943    0.80894    0.45733    1.000
    Si3066   Si       0.51110    0.81318    0.44682    1.000
    N3067    N        0.49316    0.89240    0.43284    1.000
    N3068    N        0.48972    0.95306    0.36844    1.000
    Si3069   Si       0.50057    0.00658    0.48745    1.000
    N3070    N        0.46189    0.94093    0.45572    1.000
    Si3071   Si       0.50638    0.93145    0.45463    1.000
    N3072    N        0.51708    0.97505    0.45982    1.000
    N3073    N        0.48100    0.77793    0.58522    1.000
    N3074    N        0.47134    0.86478    0.50137    1.000
    Si3075   Si       0.51449    0.87084    0.50083    1.000
    Si3076   Si       0.50871    0.75875    0.55796    1.000
    N3077    N        0.47658    0.90325    0.55691    1.000
    N3078    N        0.50345    0.98049    0.52482    1.000
    Si3079   Si       0.48887    0.99545    0.56169    1.000
    N3080    N        0.51220    0.98928    0.59626    1.000
    N3081    N        0.47744    0.93081    0.61757    1.000
    Si3082   Si       0.51840    0.89315    0.57112    1.000
    Si3083   Si       0.49456    0.78117    0.62564    1.000
    N3084    N        0.48354    0.82342    0.63569    1.000
    N3085    N        0.50074    0.79813    0.72912    1.000
    N3086    N        0.47578    0.84573    0.69801    1.000
    N3087    N        0.46987    0.76285    0.65507    1.000
    Si3088   Si       0.51742    0.83453    0.70895    1.000
    N3089    N        0.51680    0.99899    0.71291    1.000
    N3090    N        0.48873    0.93300    0.73624    1.000
    Si3091   Si       0.49668    0.96600    0.63074    1.000
    Si3092   Si       0.48351    0.89072    0.71335    1.000
    N3093    N        0.47574    0.98734    0.66258    1.000
    N3094    N        0.49118    0.90493    0.67337    1.000
    N3095    N        0.48397    0.80671    0.79497    1.000
    Si3096   Si       0.49989    0.81341    0.83576    1.000
    Si3097   Si       0.50451    0.78036    0.76693    1.000
    N3098    N        0.51101    0.85577    0.83692    1.000
    N3099    N        0.47171    0.79558    0.86543    1.000
    Si3100   Si       0.50518    0.90102    0.83886    1.000
    Si3101   Si       0.47167    0.99835    0.81111    1.000
    N3102    N        0.46497    0.89926    0.82318    1.000
    N3103    N        0.51006    0.98692    0.82836    1.000
    Si3104   Si       0.50649    0.00212    0.87063    1.000
    Si3105   Si       0.49333    0.85076    0.96120    1.000
    Si3106   Si       0.47685    0.76516    0.89668    1.000
    N3107    N        0.51114    0.88448    0.94077    1.000
    Si3108   Si       0.51036    0.91612    0.97231    1.000
    N3109    N        0.50672    0.91368    0.87994    1.000
    N3110    N        0.50888    0.94924    0.93855    1.000
    Si3111   Si       0.48662    0.97869    0.96341    1.000
    Si3112   Si       0.48427    0.93990    0.90561    1.000
    N3113    N        0.47346    0.97924    0.88729    1.000
    N3114    N        0.54930    0.07970    0.07497    1.000
    Si3115   Si       0.55068    0.07349    0.03191    1.000
    N3116    N        0.53996    0.11078    0.01330    1.000
    Si3117   Si       0.53219    0.06284    0.11024    1.000
    N3118    N        0.56559    0.04072    0.00580    1.000
    Si3119   Si       0.52902    0.02064    0.00094    1.000
    N3120    N        0.51925    0.02453    0.09570    1.000
    N3121    N        0.56553    0.14612    0.07144    1.000
    N3122    N        0.54525    0.25180    0.05192    1.000
    N3123    N        0.52752    0.18131    0.03077    1.000
    Si3124   Si       0.55620    0.14678    0.02953    1.000
    Si3125   Si       0.54881    0.20999    0.05678    1.000
    N3126    N        0.53785    0.20335    0.09953    1.000
    Si3127   Si       0.55029    0.16298    0.10992    1.000
    N3128    N        0.53294    0.02714    0.19155    1.000
    N3129    N        0.56273    0.05987    0.14122    1.000
    N3130    N        0.53603    0.11006    0.17387    1.000
    Si3131   Si       0.54739    0.06807    0.18355    1.000
    N3132    N        0.55569    0.07288    0.22682    1.000
    Si3133   Si       0.56708    0.11144    0.24049    1.000
    Si3134   Si       0.55927    0.14676    0.17935    1.000
    N3135    N        0.53001    0.24725    0.20362    1.000
    Si3136   Si       0.54271    0.20761    0.21885    1.000
    N3137    N        0.53009    0.17852    0.19140    1.000
    N3138    N        0.55878    0.05322    0.29925    1.000
    N3139    N        0.54833    0.11707    0.33145    1.000
    Si3140   Si       0.53002    0.07626    0.32457    1.000
    Si3141   Si       0.55226    0.04223    0.25715    1.000
    N3142    N        0.53209    0.13080    0.26124    1.000
    N3143    N        0.52115    0.06208    0.36370    1.000
    Si3144   Si       0.52716    0.14624    0.35539    1.000
    Si3145   Si       0.53462    0.16841    0.28464    1.000
    N3146    N        0.56121    0.23688    0.36083    1.000
    N3147    N        0.52281    0.19753    0.25668    1.000
    Si3148   Si       0.52046    0.25375    0.36069    1.000
    N3149    N        0.55637    0.05365    0.42705    1.000
    N3150    N        0.53676    0.10108    0.47266    1.000
    Si3151   Si       0.55305    0.04157    0.38586    1.000
    Si3152   Si       0.52136    0.06944    0.44789    1.000
    N3153    N        0.52121    0.04221    0.48470    1.000
    N3154    N        0.55530    0.16166    0.38716    1.000
    Si3155   Si       0.54162    0.14359    0.47304    1.000
    Si3156   Si       0.54606    0.20471    0.38980    1.000
    N3157    N        0.55277    0.22401    0.42772    1.000
    Si3158   Si       0.51941    0.21096    0.45492    1.000
    N3159    N        0.54877    0.07520    0.54302    1.000
    Si3160   Si       0.54938    0.07011    0.50111    1.000
    Si3161   Si       0.54124    0.10128    0.61461    1.000
    N3162    N        0.54548    0.13213    0.58261    1.000
    N3163    N        0.54078    0.15378    0.51403    1.000
    Si3164   Si       0.56119    0.19229    0.51622    1.000
    N3165    N        0.56162    0.19581    0.56170    1.000
    Si3166   Si       0.52531    0.25338    0.52114    1.000
    Si3167   Si       0.51999    0.20377    0.57510    1.000
    N3168    N        0.52389    0.20927    0.61834    1.000
    Si3169   Si       0.52085    0.13807    0.54734    1.000
    N3170    N        0.53660    0.22046    0.49408    1.000
    N3171    N        0.55668    0.07304    0.72374    1.000
    Si3172   Si       0.53202    0.08450    0.69019    1.000
    N3173    N        0.54096    0.11202    0.65779    1.000
    N3174    N        0.54996    0.19935    0.73669    1.000
    N3175    N        0.56494    0.22835    0.67503    1.000
    Si3176   Si       0.56683    0.21010    0.63388    1.000
    N3177    N        0.55089    0.08133    0.79194    1.000
    Si3178   Si       0.52982    0.06693    0.86051    1.000
    N3179    N        0.56031    0.04083    0.84498    1.000
    N3180    N        0.54899    0.10636    0.85459    1.000
    Si3181   Si       0.54156    0.10069    0.75437    1.000
    Si3182   Si       0.52413    0.11046    0.81615    1.000
    N3183    N        0.55104    0.19781    0.80743    1.000
    Si3184   Si       0.56578    0.17742    0.77212    1.000
    Si3185   Si       0.56750    0.18433    0.84817    1.000
    Si3186   Si       0.56272    0.24259    0.80931    1.000
    N3187    N        0.53617    0.24711    0.84438    1.000
    N3188    N        0.56668    0.13558    0.75378    1.000
    N3189    N        0.56208    0.12529    0.94932    1.000
    N3190    N        0.56864    0.05188    0.92974    1.000
    Si3191   Si       0.52575    0.11241    0.97169    1.000
    Si3192   Si       0.52412    0.04548    0.93293    1.000
    N3193    N        0.55770    0.19320    0.94544    1.000
    Si3194   Si       0.52783    0.19913    0.91458    1.000
    Si3195   Si       0.56499    0.25074    0.88597    1.000
    N3196    N        0.53659    0.17782    0.87718    1.000
    N3197    N        0.52176    0.24208    0.90714    1.000
    N3198    N        0.53557    0.24369    0.97772    1.000
    Si3199   Si       0.57593    0.23196    0.96210    1.000
    N3200    N        0.54658    0.30776    0.08941    1.000
    N3201    N        0.54155    0.30944    0.00891    1.000
    Si3202   Si       0.53015    0.34638    0.09615    1.000
    N3203    N        0.56839    0.37210    0.03830    1.000
    Si3204   Si       0.55089    0.26705    0.01127    1.000
    Si3205   Si       0.53813    0.26558    0.09485    1.000
    N3206    N        0.55851    0.37708    0.10605    1.000
    Si3207   Si       0.57326    0.33593    0.01392    1.000
    Si3208   Si       0.52721    0.38373    0.04158    1.000
    N3209    N        0.55865    0.44831    0.09105    1.000
    N3210    N        0.55644    0.48200    0.03351    1.000
    Si3211   Si       0.53040    0.45987    0.06003    1.000
    Si3212   Si       0.54881    0.41743    0.11898    1.000
    Si3213   Si       0.53318    0.34900    0.21537    1.000
    N3214    N        0.53562    0.37580    0.18134    1.000
    Si3215   Si       0.55822    0.26792    0.17851    1.000
    N3216    N        0.56908    0.30834    0.19346    1.000
    N3217    N        0.55808    0.26182    0.13458    1.000
    N3218    N        0.53400    0.46750    0.17583    1.000
    Si3219   Si       0.56375    0.49597    0.16325    1.000
    Si3220   Si       0.55816    0.45856    0.21239    1.000
    Si3221   Si       0.56899    0.36624    0.28476    1.000
    N3222    N        0.53192    0.36962    0.30665    1.000
    Si3223   Si       0.51960    0.37079    0.35044    1.000
    N3224    N        0.56469    0.34882    0.24486    1.000
    Si3225   Si       0.54518    0.49491    0.28427    1.000
    N3226    N        0.52189    0.47872    0.31577    1.000
    N3227    N        0.53757    0.47101    0.24886    1.000
    N3228    N        0.56794    0.32653    0.49488    1.000
    Si3229   Si       0.57258    0.26103    0.43805    1.000
    N3230    N        0.54964    0.35557    0.37724    1.000
    Si3231   Si       0.54575    0.32113    0.40830    1.000
    N3232    N        0.54160    0.29194    0.44347    1.000
    Si3233   Si       0.52989    0.31552    0.47904    1.000
    N3234    N        0.52776    0.29378    0.37798    1.000
    N3235    N        0.56537    0.46855    0.37378    1.000
    Si3236   Si       0.54033    0.43472    0.38861    1.000
    N3237    N        0.55407    0.39364    0.47902    1.000
    N3238    N        0.56963    0.41155    0.40921    1.000
    Si3239   Si       0.57140    0.43404    0.47876    1.000
    Si3240   Si       0.54128    0.49753    0.39479    1.000
    N3241    N        0.53483    0.45854    0.48380    1.000
    N3242    N        0.52099    0.46335    0.41595    1.000
    N3243    N        0.54444    0.33027    0.61363    1.000
    N3244    N        0.56803    0.26402    0.53615    1.000
    Si3245   Si       0.51973    0.35682    0.58844    1.000
    N3246    N        0.54239    0.39179    0.57982    1.000
    N3247    N        0.54049    0.45081    0.55593    1.000
    Si3248   Si       0.55752    0.46375    0.59456    1.000
    Si3249   Si       0.53571    0.48127    0.52181    1.000
    Si3250   Si       0.57103    0.39298    0.61526    1.000
    Si3251   Si       0.57402    0.41580    0.55503    1.000
    N3252    N        0.57459    0.49964    0.52386    1.000
    N3253    N        0.51798    0.28716    0.67453    1.000
    Si3254   Si       0.53028    0.31692    0.70773    1.000
    Si3255   Si       0.55891    0.27131    0.67284    1.000
    N3256    N        0.52991    0.35143    0.68022    1.000
    N3257    N        0.56820    0.29578    0.70973    1.000
    Si3258   Si       0.56607    0.37439    0.68470    1.000
    N3259    N        0.56995    0.38331    0.72563    1.000
    Si3260   Si       0.55841    0.45210    0.74474    1.000
    Si3261   Si       0.55751    0.44993    0.66415    1.000
    N3262    N        0.53202    0.46006    0.62955    1.000
    N3263    N        0.56707    0.40587    0.65598    1.000
    N3264    N        0.55651    0.49522    0.74596    1.000
    N3265    N        0.53881    0.44948    0.70335    1.000
    N3266    N        0.53792    0.35571    0.84692    1.000
    Si3267   Si       0.55081    0.36578    0.76178    1.000
    Si3268   Si       0.56427    0.29446    0.75316    1.000
    N3269    N        0.53247    0.32626    0.75170    1.000
    Si3270   Si       0.57274    0.37814    0.83169    1.000
    N3271    N        0.54583    0.26181    0.77408    1.000
    N3272    N        0.53711    0.44026    0.78359    1.000
    Si3273   Si       0.55430    0.45140    0.82167    1.000
    N3274    N        0.52178    0.45176    0.85072    1.000
    N3275    N        0.57362    0.49233    0.81448    1.000
    Si3276   Si       0.56714    0.33289    0.87409    1.000
    N3277    N        0.55524    0.34339    0.91587    1.000
    N3278    N        0.57360    0.29124    0.87443    1.000
    N3279    N        0.57063    0.46557    0.96184    1.000
    N3280    N        0.56252    0.39544    0.96133    1.000
    Si3281   Si       0.52543    0.48303    0.88321    1.000
    Si3282   Si       0.52841    0.46478    0.95877    1.000
    N3283    N        0.56789    0.48768    0.88284    1.000
    Si3284   Si       0.52101    0.39175    0.96602    1.000
    N3285    N        0.54578    0.60130    0.06243    1.000
    Si3286   Si       0.54051    0.51498    0.00812    1.000
    N3287    N        0.52518    0.54251    0.03638    1.000
    N3288    N        0.56624    0.63687    0.11057    1.000
    Si3289   Si       0.53728    0.64168    0.07506    1.000
    Si3290   Si       0.55052    0.74976    0.04898    1.000
    Si3291   Si       0.53705    0.68228    0.01112    1.000
    N3292    N        0.54789    0.74512    0.09093    1.000
    N3293    N        0.56048    0.65818    0.03987    1.000
    N3294    N        0.52655    0.72102    0.02943    1.000
    N3295    N        0.52172    0.56034    0.21819    1.000
    N3296    N        0.53756    0.53095    0.15788    1.000
    Si3297   Si       0.54531    0.56740    0.13574    1.000
    Si3298   Si       0.53920    0.59748    0.20542    1.000
    N3299    N        0.55538    0.59680    0.16632    1.000
    N3300    N        0.57368    0.60357    0.23094    1.000
    N3301    N        0.55882    0.66515    0.18025    1.000
    Si3302   Si       0.53791    0.69830    0.16183    1.000
    N3303    N        0.57289    0.72513    0.15168    1.000
    Si3304   Si       0.57385    0.67666    0.22207    1.000
    N3305    N        0.57361    0.72085    0.22341    1.000
    Si3306   Si       0.57561    0.63334    0.15266    1.000
    N3307    N        0.54078    0.53755    0.27979    1.000
    Si3308   Si       0.55924    0.62563    0.26762    1.000
    N3309    N        0.52641    0.60295    0.28202    1.000
    N3310    N        0.51972    0.59156    0.35564    1.000
    N3311    N        0.54718    0.72554    0.29394    1.000
    Si3312   Si       0.55496    0.67248    0.34325    1.000
    Si3313   Si       0.55318    0.74491    0.33315    1.000
    N3314    N        0.55008    0.71253    0.36063    1.000
    Si3315   Si       0.55967    0.74665    0.25772    1.000
    Si3316   Si       0.52562    0.68844    0.28325    1.000
    N3317    N        0.54925    0.66621    0.25626    1.000
    N3318    N        0.52056    0.65998    0.31608    1.000
    Si3319   Si       0.55763    0.55961    0.44152    1.000
    N3320    N        0.53875    0.59582    0.42822    1.000
    N3321    N        0.53079    0.54549    0.47152    1.000
    Si3322   Si       0.53902    0.62572    0.45906    1.000
    N3323    N        0.56493    0.53155    0.40901    1.000
    Si3324   Si       0.52608    0.61365    0.39149    1.000
    Si3325   Si       0.55549    0.67435    0.41227    1.000
    Si3326   Si       0.56824    0.75018    0.44509    1.000
    Si3327   Si       0.53227    0.73392    0.39495    1.000
    N3328    N        0.54673    0.71356    0.43148    1.000
    N3329    N        0.54958    0.64839    0.38013    1.000
    Si3330   Si       0.51603    0.69927    0.46301    1.000
    N3331    N        0.53752    0.55266    0.54430    1.000
    Si3332   Si       0.54725    0.62632    0.52808    1.000
    Si3333   Si       0.53207    0.62422    0.60468    1.000
    N3334    N        0.52528    0.61683    0.56361    1.000
    Si3335   Si       0.57229    0.52876    0.55566    1.000
    N3336    N        0.51693    0.61982    0.49528    1.000
    N3337    N        0.56864    0.50493    0.59277    1.000
    N3338    N        0.55704    0.66966    0.52953    1.000
    Si3339   Si       0.52609    0.69843    0.60453    1.000
    Si3340   Si       0.52431    0.69763    0.52759    1.000
    N3341    N        0.57076    0.69997    0.61317    1.000
    N3342    N        0.53724    0.72449    0.49684    1.000
    N3343    N        0.57183    0.62863    0.62057    1.000
    N3344    N        0.53578    0.59820    0.68370    1.000
    N3345    N        0.52396    0.55187    0.73246    1.000
    Si3346   Si       0.54654    0.52026    0.70980    1.000
    N3347    N        0.53153    0.52774    0.66995    1.000
    Si3348   Si       0.53859    0.56862    0.65320    1.000
    Si3349   Si       0.56005    0.57916    0.74588    1.000
    Si3350   Si       0.57252    0.70716    0.69618    1.000
    Si3351   Si       0.56074    0.74402    0.63164    1.000
    N3352    N        0.54736    0.72244    0.72737    1.000
    N3353    N        0.51928    0.73039    0.63439    1.000
    N3354    N        0.54152    0.61502    0.76197    1.000
    N3355    N        0.56309    0.55656    0.85011    1.000
    N3356    N        0.57458    0.55547    0.77955    1.000
    Si3357   Si       0.57148    0.75182    0.75153    1.000
    N3358    N        0.55616    0.73675    0.84218    1.000
    N3359    N        0.54318    0.67510    0.80479    1.000
    Si3360   Si       0.56735    0.64124    0.78298    1.000
    Si3361   Si       0.57127    0.70455    0.81690    1.000
    Si3362   Si       0.53119    0.56238    0.88099    1.000
    Si3363   Si       0.56888    0.61456    0.91482    1.000
    N3364    N        0.55135    0.57303    0.91744    1.000
    N3365    N        0.57056    0.53337    0.97945    1.000
    Si3366   Si       0.55633    0.57208    0.96401    1.000
    N3367    N        0.55907    0.63884    0.88083    1.000
    N3368    N        0.53953    0.63480    0.93914    1.000
    Si3369   Si       0.56709    0.73907    0.98842    1.000
    N3370    N        0.56180    0.69607    0.97839    1.000
    N3371    N        0.56199    0.69988    0.90775    1.000
    Si3372   Si       0.53765    0.72438    0.87852    1.000
    Si3373   Si       0.53273    0.66640    0.90608    1.000
    N3374    N        0.51781    0.75409    0.90308    1.000
    N3375    N        0.53698    0.86381    0.03700    1.000
    Si3376   Si       0.55414    0.82720    0.05064    1.000
    N3377    N        0.53820    0.78953    0.03684    1.000
    N3378    N        0.54361    0.83103    0.09297    1.000
    N3379    N        0.54272    0.93276    0.05178    1.000
    Si3380   Si       0.56144    0.89899    0.02890    1.000
    Si3381   Si       0.53573    0.92350    0.09449    1.000
    Si3382   Si       0.56820    0.96976    0.04468    1.000
    N3383    N        0.53005    0.99110    0.03407    1.000
    N3384    N        0.57699    0.92559    0.10808    1.000
    Si3385   Si       0.57498    0.82582    0.12450    1.000
    N3386    N        0.55004    0.77754    0.18546    1.000
    N3387    N        0.55202    0.83964    0.15752    1.000
    Si3388   Si       0.54706    0.81888    0.19401    1.000
    N3389    N        0.57264    0.83273    0.22557    1.000
    Si3390   Si       0.56215    0.87989    0.14667    1.000
    N3391    N        0.55996    0.98616    0.13821    1.000
    N3392    N        0.52457    0.89075    0.12236    1.000
    Si3393   Si       0.56462    0.99982    0.17848    1.000
    N3394    N        0.56222    0.89717    0.18663    1.000
    Si3395   Si       0.53706    0.93110    0.19573    1.000
    N3396    N        0.56326    0.96505    0.20451    1.000
    Si3397   Si       0.55965    0.81729    0.26467    1.000
    N3398    N        0.52873    0.84308    0.28142    1.000
    N3399    N        0.52664    0.77724    0.34642    1.000
    N3400    N        0.53609    0.78146    0.25378    1.000
    Si3401   Si       0.55106    0.87841    0.29814    1.000
    N3402    N        0.55304    0.95901    0.27758    1.000
    N3403    N        0.55695    0.94334    0.34727    1.000
    Si3404   Si       0.55691    0.97422    0.31864    1.000
    Si3405   Si       0.57962    0.96953    0.24538    1.000
    N3406    N        0.52026    0.99807    0.32322    1.000
    N3407    N        0.57680    0.82560    0.37403    1.000
    Si3408   Si       0.51875    0.86985    0.40574    1.000
    N3409    N        0.53251    0.83885    0.47655    1.000
    Si3410   Si       0.54133    0.80063    0.38104    1.000
    Si3411   Si       0.56875    0.81006    0.47788    1.000
    N3412    N        0.53556    0.78046    0.46193    1.000
    N3413    N        0.55876    0.76818    0.40525    1.000
    N3414    N        0.56224    0.87681    0.41675    1.000
    N3415    N        0.51710    0.82733    0.40566    1.000
    N3416    N        0.53745    0.00094    0.38932    1.000
    N3417    N        0.52013    0.91389    0.49404    1.000
    N3418    N        0.54330    0.93895    0.41653    1.000
    Si3419   Si       0.54554    0.98093    0.42699    1.000
    Si3420   Si       0.52603    0.93088    0.37697    1.000
    N3421    N        0.54763    0.77924    0.55032    1.000
    Si3422   Si       0.56399    0.79466    0.58737    1.000
    N3423    N        0.52973    0.86385    0.54132    1.000
    Si3424   Si       0.57176    0.85264    0.54830    1.000
    N3425    N        0.52171    0.87483    0.61117    1.000
    Si3426   Si       0.54690    0.96084    0.59424    1.000
    N3427    N        0.53602    0.93299    0.56370    1.000
    Si3428   Si       0.53129    0.94758    0.51999    1.000
    N3429    N        0.57344    0.95796    0.51221    1.000
    N3430    N        0.53547    0.79288    0.62060    1.000
    N3431    N        0.54201    0.83831    0.67275    1.000
    N3432    N        0.52277    0.87364    0.72956    1.000
    Si3433   Si       0.52518    0.83606    0.63197    1.000
    N3434    N        0.53600    0.94872    0.63747    1.000
    N3435    N        0.56427    0.90070    0.66095    1.000
    Si3436   Si       0.52161    0.95993    0.73460    1.000
    N3437    N        0.55794    0.93986    0.71552    1.000
    Si3438   Si       0.56411    0.94446    0.67228    1.000
    Si3439   Si       0.52321    0.90539    0.64346    1.000
    Si3440   Si       0.55787    0.89861    0.73303    1.000
    N3441    N        0.54062    0.80239    0.84359    1.000
    Si3442   Si       0.55272    0.84404    0.85196    1.000
    N3443    N        0.54594    0.77677    0.77793    1.000
    Si3444   Si       0.56179    0.77270    0.81865    1.000
    N3445    N        0.54141    0.92108    0.82361    1.000
    N3446    N        0.54712    0.96877    0.77017    1.000
    Si3447   Si       0.54393    0.96405    0.81423    1.000
    Si3448   Si       0.57425    0.00429    0.86454    1.000
    N3449    N        0.55610    0.85935    0.89025    1.000
    Si3450   Si       0.55813    0.83786    0.92847    1.000
    Si3451   Si       0.53739    0.77877    0.93252    1.000
    N3452    N        0.53438    0.76297    0.97410    1.000
    N3453    N        0.51845    0.82018    0.93880    1.000
    Si3454   Si       0.54956    0.95929    0.92262    1.000
    N3455    N        0.54351    0.98518    0.88860    1.000
    N3456    N        0.56502    0.92029    0.91993    1.000
    N3457    N        0.55320    0.91390    0.98839    1.000
    Si3458   Si       0.53394    0.89265    0.90682    1.000
    N3459    N        0.61768    0.10131    0.09828    1.000
    N3460    N        0.59913    0.09048    0.03857    1.000
    Si3461   Si       0.58263    0.10695    0.07505    1.000
    Si3462   Si       0.61328    0.11450    0.00488    1.000
    N3463    N        0.62905    0.03284    0.03608    1.000
    N3464    N        0.62556    0.03723    0.10877    1.000
    Si3465   Si       0.62727    0.06236    0.07184    1.000
    Si3466   Si       0.60853    0.04823    0.99934    1.000
    Si3467   Si       0.61361    0.18789    0.01787    1.000
    N3468    N        0.59450    0.20767    0.05068    1.000
    Si3469   Si       0.62136    0.23092    0.07761    1.000
    N3470    N        0.59242    0.15142    0.00284    1.000
    N3471    N        0.62005    0.21307    0.11850    1.000
    N3472    N        0.60001    0.02453    0.18148    1.000
    Si3473   Si       0.60591    0.05236    0.14611    1.000
    Si3474   Si       0.61688    0.02447    0.22180    1.000
    N3475    N        0.63020    0.08524    0.16284    1.000
    N3476    N        0.63351    0.06383    0.23348    1.000
    Si3477   Si       0.62024    0.17720    0.14240    1.000
    Si3478   Si       0.60333    0.25472    0.13578    1.000
    N3479    N        0.58589    0.13401    0.21145    1.000
    N3480    N        0.59516    0.24407    0.17672    1.000
    Si3481   Si       0.61527    0.21772    0.20447    1.000
    N3482    N        0.62407    0.18056    0.18643    1.000
    Si3483   Si       0.62551    0.14922    0.21666    1.000
    N3484    N        0.58359    0.20621    0.23172    1.000
    N3485    N        0.57755    0.16126    0.14344    1.000
    N3486    N        0.59545    0.10776    0.27401    1.000
    Si3487   Si       0.59236    0.03857    0.31937    1.000
    N3488    N        0.61359    0.11656    0.34121    1.000
    N3489    N        0.62949    0.05325    0.30487    1.000
    N3490    N        0.58681    0.04985    0.36019    1.000
    Si3491   Si       0.58488    0.12746    0.31000    1.000
    Si3492   Si       0.61062    0.08410    0.36930    1.000
    Si3493   Si       0.63310    0.08386    0.27393    1.000
    N3494    N        0.58484    0.01234    0.24713    1.000
    N3495    N        0.57859    0.16838    0.29523    1.000
    Si3496   Si       0.60325    0.19446    0.27013    1.000
    N3497    N        0.62380    0.22569    0.29167    1.000
    N3498    N        0.62928    0.22628    0.36768    1.000
    Si3499   Si       0.60003    0.25771    0.36551    1.000
    N3500    N        0.60768    0.10093    0.40777    1.000
    Si3501   Si       0.59006    0.03672    0.45165    1.000
    N3502    N        0.63191    0.04114    0.44045    1.000
    N3503    N        0.59016    0.05510    0.49258    1.000
    Si3504   Si       0.61541    0.17005    0.46577    1.000
    N3505    N        0.62458    0.16343    0.39090    1.000
    Si3506   Si       0.59070    0.14187    0.40776    1.000
    N3507    N        0.57969    0.15089    0.44901    1.000
    N3508    N        0.62296    0.20772    0.44097    1.000
    N3509    N        0.61791    0.06351    0.55781    1.000
    Si3510   Si       0.62510    0.06177    0.51642    1.000
    Si3511   Si       0.58466    0.08948    0.56693    1.000
    N3512    N        0.58172    0.08243    0.61056    1.000
    N3513    N        0.60458    0.13099    0.56278    1.000
    N3514    N        0.62543    0.22468    0.55719    1.000
    N3515    N        0.60159    0.18844    0.50394    1.000
    Si3516   Si       0.58385    0.23565    0.56457    1.000
    N3517    N        0.58414    0.24027    0.60703    1.000
    Si3518   Si       0.57983    0.16102    0.58448    1.000
    Si3519   Si       0.60923    0.07808    0.64425    1.000
    N3520    N        0.61646    0.11388    0.67057    1.000
    Si3521   Si       0.59033    0.04824    0.71427    1.000
    N3522    N        0.60148    0.04444    0.67205    1.000
    N3523    N        0.62694    0.07033    0.72825    1.000
    N3524    N        0.60066    0.17378    0.69873    1.000
    Si3525   Si       0.58201    0.21255    0.71216    1.000
    Si3526   Si       0.60498    0.14930    0.73612    1.000
    Si3527   Si       0.61515    0.15712    0.65988    1.000
    N3528    N        0.61022    0.23999    0.73180    1.000
    N3529    N        0.58902    0.17225    0.62724    1.000
    N3530    N        0.60995    0.09091    0.82333    1.000
    N3531    N        0.60913    0.03393    0.78633    1.000
    Si3532   Si       0.59062    0.11565    0.85688    1.000
    Si3533   Si       0.58179    0.05970    0.81028    1.000
    N3534    N        0.59889    0.15468    0.84114    1.000
    N3535    N        0.60975    0.17364    0.77392    1.000
    Si3536   Si       0.62565    0.23322    0.84549    1.000
    N3537    N        0.58928    0.21971    0.86463    1.000
    N3538    N        0.60670    0.24671    0.80827    1.000
    Si3539   Si       0.63063    0.16630    0.81270    1.000
    N3540    N        0.60586    0.10608    0.89551    1.000
    N3541    N        0.60599    0.08474    0.97413    1.000
    Si3542   Si       0.59760    0.01788    0.93251    1.000
    N3543    N        0.62248    0.02064    0.96876    1.000
    Si3544   Si       0.58731    0.09151    0.93477    1.000
    N3545    N        0.60907    0.00921    0.89224    1.000
    N3546    N        0.62316    0.15643    0.93643    1.000
    N3547    N        0.61158    0.20397    0.97721    1.000
    N3548    N        0.58998    0.24577    0.92353    1.000
    Si3549   Si       0.58566    0.16274    0.95745    1.000
    N3550    N        0.59966    0.31564    0.04093    1.000
    N3551    N        0.61085    0.33837    0.10087    1.000
    Si3552   Si       0.58902    0.30859    0.08151    1.000
    N3553    N        0.60442    0.26765    0.09195    1.000
    Si3554   Si       0.60635    0.37986    0.11923    1.000
    Si3555   Si       0.60467    0.39682    0.04357    1.000
    N3556    N        0.61287    0.41067    0.08423    1.000
    Si3557   Si       0.59828    0.47250    0.03181    1.000
    N3558    N        0.60030    0.43087    0.01662    1.000
    Si3559   Si       0.60289    0.45694    0.10710    1.000
    N3560    N        0.61793    0.47907    0.06890    1.000
    N3561    N        0.61968    0.49670    0.00251    1.000
    N3562    N        0.60228    0.36346    0.16362    1.000
    Si3563   Si       0.60712    0.32349    0.17597    1.000
    N3564    N        0.62136    0.29363    0.14760    1.000
    N3565    N        0.62405    0.32782    0.21815    1.000
    Si3566   Si       0.58849    0.31449    0.23585    1.000
    N3567    N        0.59305    0.49342    0.13015    1.000
    N3568    N        0.58699    0.41940    0.14240    1.000
    N3569    N        0.58632    0.48992    0.19901    1.000
    Si3570   Si       0.62657    0.48561    0.21691    1.000
    Si3571   Si       0.60768    0.41782    0.24271    1.000
    Si3572   Si       0.57528    0.39381    0.17809    1.000
    N3573    N        0.57738    0.41914    0.21203    1.000
    N3574    N        0.61360    0.28331    0.33266    1.000
    N3575    N        0.60231    0.34669    0.30535    1.000
    Si3576   Si       0.62249    0.32555    0.33475    1.000
    N3577    N        0.59361    0.28068    0.26269    1.000
    Si3578   Si       0.62286    0.27018    0.29176    1.000
    Si3579   Si       0.61525    0.40824    0.31408    1.000
    N3580    N        0.60788    0.39908    0.35575    1.000
    Si3581   Si       0.60601    0.47001    0.35833    1.000
    N3582    N        0.59015    0.40413    0.27908    1.000
    Si3583   Si       0.62174    0.47816    0.28875    1.000
    N3584    N        0.62031    0.45154    0.32177    1.000
    N3585    N        0.58637    0.50060    0.29764    1.000
    N3586    N        0.61858    0.45986    0.24977    1.000
    Si3587   Si       0.58062    0.36110    0.46984    1.000
    N3588    N        0.61739    0.33853    0.37587    1.000
    Si3589   Si       0.59010    0.37415    0.38960    1.000
    Si3590   Si       0.61526    0.31697    0.41321    1.000
    N3591    N        0.59850    0.27899    0.40465    1.000
    N3592    N        0.62003    0.37534    0.47955    1.000
    N3593    N        0.60052    0.26268    0.47226    1.000
    N3594    N        0.58075    0.34215    0.42939    1.000
    Si3595   Si       0.60914    0.42887    0.42033    1.000
    N3596    N        0.63272    0.45080    0.39078    1.000
    N3597    N        0.60579    0.44847    0.45738    1.000
    N3598    N        0.61640    0.29954    0.59221    1.000
    Si3599   Si       0.58968    0.28991    0.50530    1.000
    N3600    N        0.60318    0.36305    0.61151    1.000
    N3601    N        0.62674    0.30593    0.52127    1.000
    Si3602   Si       0.63312    0.37495    0.58179    1.000
    Si3603   Si       0.58672    0.32229    0.61514    1.000
    N3604    N        0.60612    0.38158    0.54788    1.000
    Si3605   Si       0.61067    0.47529    0.52802    1.000
    N3606    N        0.58781    0.43034    0.59722    1.000
    N3607    N        0.59283    0.43563    0.51988    1.000
    Si3608   Si       0.62022    0.40251    0.51325    1.000
    N3609    N        0.62874    0.47795    0.56906    1.000
    Si3610   Si       0.63062    0.44394    0.59645    1.000
    Si3611   Si       0.61615    0.26584    0.62208    1.000
    Si3612   Si       0.60436    0.31050    0.68903    1.000
    N3613    N        0.59215    0.29093    0.64944    1.000
    N3614    N        0.60335    0.35216    0.67969    1.000
    Si3615   Si       0.60826    0.39850    0.73690    1.000
    N3616    N        0.58599    0.48029    0.65490    1.000
    Si3617   Si       0.62967    0.48055    0.65494    1.000
    N3618    N        0.63149    0.40880    0.70058    1.000
    N3619    N        0.59972    0.35651    0.85887    1.000
    Si3620   Si       0.61888    0.34202    0.78397    1.000
    N3621    N        0.60462    0.30305    0.77010    1.000
    N3622    N        0.58097    0.36294    0.79277    1.000
    Si3623   Si       0.62107    0.26250    0.77151    1.000
    Si3624   Si       0.62359    0.42945    0.84823    1.000
    N3625    N        0.58384    0.42106    0.83287    1.000
    N3626    N        0.59800    0.43722    0.75535    1.000
    N3627    N        0.62152    0.50148    0.76077    1.000
    Si3628   Si       0.63019    0.46136    0.77453    1.000
    N3629    N        0.62214    0.51229    0.86561    1.000
    Si3630   Si       0.58346    0.36300    0.94322    1.000
    N3631    N        0.62212    0.37035    0.92145    1.000
    Si3632   Si       0.61763    0.29884    0.97633    1.000
    N3633    N        0.59414    0.33604    0.97482    1.000
    N3634    N        0.59025    0.26710    0.99025    1.000
    Si3635   Si       0.62848    0.26003    0.91217    1.000
    N3636    N        0.63310    0.29755    0.93478    1.000
    Si3637   Si       0.63543    0.41342    0.91957    1.000
    Si3638   Si       0.60779    0.48309    0.89515    1.000
    Si3639   Si       0.59495    0.50107    0.96652    1.000
    N3640    N        0.62170    0.50215    0.93095    1.000
    N3641    N        0.62355    0.44359    0.88953    1.000
    Si3642   Si       0.59014    0.42803    0.97393    1.000
    N3643    N        0.63110    0.43231    0.95753    1.000
    N3644    N        0.61222    0.61358    0.05831    1.000
    Si3645   Si       0.58910    0.62897    0.02304    1.000
    Si3646   Si       0.58244    0.60225    0.08841    1.000
    N3647    N        0.58182    0.56364    0.11078    1.000
    N3648    N        0.61391    0.72799    0.08892    1.000
    N3649    N        0.58887    0.75243    0.02446    1.000
    Si3650   Si       0.58371    0.74733    0.11489    1.000
    N3651    N        0.62559    0.64379    0.00033    1.000
    Si3652   Si       0.62517    0.73946    0.05004    1.000
    Si3653   Si       0.60918    0.53383    0.12451    1.000
    N3654    N        0.63470    0.55134    0.15911    1.000
    N3655    N        0.63828    0.59485    0.21623    1.000
    N3656    N        0.61056    0.65890    0.23753    1.000
    N3657    N        0.61855    0.63529    0.16145    1.000
    Si3658   Si       0.62863    0.63655    0.20445    1.000
    Si3659   Si       0.57944    0.74539    0.18805    1.000
    Si3660   Si       0.61188    0.59247    0.31856    1.000
    N3661    N        0.61308    0.56311    0.28124    1.000
    N3662    N        0.59689    0.62031    0.28910    1.000
    N3663    N        0.58780    0.56348    0.34073    1.000
    Si3664   Si       0.60988    0.59331    0.25068    1.000
    Si3665   Si       0.57923    0.54344    0.30043    1.000
    N3666    N        0.62023    0.50952    0.36786    1.000
    N3667    N        0.59144    0.67397    0.32370    1.000
    Si3668   Si       0.61648    0.66097    0.28490    1.000
    Si3669   Si       0.61228    0.71035    0.33010    1.000
    N3670    N        0.59611    0.75031    0.33073    1.000
    Si3671   Si       0.59675    0.54590    0.37943    1.000
    N3672    N        0.59578    0.57059    0.46491    1.000
    Si3673   Si       0.60601    0.60461    0.49006    1.000
    N3674    N        0.62822    0.56620    0.40100    1.000
    Si3675   Si       0.62984    0.55377    0.44181    1.000
    N3676    N        0.63116    0.50919    0.43832    1.000
    N3677    N        0.57839    0.63689    0.47218    1.000
    Si3678   Si       0.61350    0.66119    0.46126    1.000
    Si3679   Si       0.62965    0.70627    0.41491    1.000
    N3680    N        0.60993    0.73693    0.43964    1.000
    N3681    N        0.60020    0.67419    0.42254    1.000
    N3682    N        0.61223    0.54742    0.56390    1.000
    Si3683   Si       0.61887    0.58749    0.55124    1.000
    N3684    N        0.58469    0.60424    0.52897    1.000
    N3685    N        0.62391    0.60936    0.58799    1.000
    Si3686   Si       0.60349    0.71235    0.58584    1.000
    Si3687   Si       0.59753    0.68210    0.53218    1.000
    N3688    N        0.61740    0.67374    0.56807    1.000
    N3689    N        0.58887    0.72304    0.54613    1.000
    N3690    N        0.62285    0.68669    0.49690    1.000
    N3691    N        0.63000    0.51692    0.62746    1.000
    Si3692   Si       0.60157    0.59501    0.62311    1.000
    N3693    N        0.58650    0.53743    0.70542    1.000
    Si3694   Si       0.61120    0.57464    0.69484    1.000
    N3695    N        0.59319    0.60118    0.72422    1.000
    N3696    N        0.62190    0.60157    0.66214    1.000
    Si3697   Si       0.62187    0.51574    0.71963    1.000
    Si3698   Si       0.58205    0.51895    0.63126    1.000
    N3699    N        0.57613    0.56085    0.63378    1.000
    N3700    N        0.58106    0.66618    0.68228    1.000
    N3701    N        0.57922    0.74079    0.66975    1.000
    Si3702   Si       0.58515    0.66510    0.63836    1.000
    N3703    N        0.62984    0.66561    0.63418    1.000
    Si3704   Si       0.61594    0.75024    0.69513    1.000
    N3705    N        0.61082    0.71212    0.71777    1.000
    Si3706   Si       0.60004    0.64412    0.71704    1.000
    N3707    N        0.62253    0.56815    0.83052    1.000
    Si3708   Si       0.58148    0.51639    0.84972    1.000
    Si3709   Si       0.58143    0.57703    0.81532    1.000
    N3710    N        0.58205    0.61922    0.81665    1.000
    N3711    N        0.62966    0.63496    0.86414    1.000
    Si3712   Si       0.58189    0.51161    0.77679    1.000
    Si3713   Si       0.61459    0.70106    0.75728    1.000
    N3714    N        0.59590    0.66095    0.75818    1.000
    N3715    N        0.60344    0.68522    0.83870    1.000
    N3716    N        0.59062    0.72819    0.78352    1.000
    Si3717   Si       0.58898    0.64560    0.85097    1.000
    Si3718   Si       0.62942    0.74751    0.80103    1.000
    N3719    N        0.58206    0.60059    0.98760    1.000
    N3720    N        0.60916    0.61286    0.92802    1.000
    Si3721   Si       0.62095    0.61011    0.96991    1.000
    Si3722   Si       0.58918    0.70222    0.94211    1.000
    N3723    N        0.63049    0.68916    0.95086    1.000
    N3724    N        0.59359    0.74229    0.95407    1.000
    Si3725   Si       0.60826    0.79051    0.01440    1.000
    N3726    N        0.59552    0.82570    0.03566    1.000
    Si3727   Si       0.62391    0.85970    0.03100    1.000
    N3728    N        0.59972    0.89358    0.04746    1.000
    N3729    N        0.60251    0.97132    0.01655    1.000
    Si3730   Si       0.60545    0.89749    0.09064    1.000
    Si3731   Si       0.62887    0.99032    0.04646    1.000
    Si3732   Si       0.58915    0.96444    0.11542    1.000
    N3733    N        0.59427    0.98187    0.07585    1.000
    N3734    N        0.59680    0.86530    0.12275    1.000
    N3735    N        0.59537    0.78821    0.12740    1.000
    N3736    N        0.61914    0.76548    0.19261    1.000
    Si3737   Si       0.62581    0.78937    0.15723    1.000
    N3738    N        0.62441    0.83145    0.17420    1.000
    Si3739   Si       0.63293    0.86362    0.14584    1.000
    N3740    N        0.62498    0.88063    0.22615    1.000
    Si3741   Si       0.63254    0.77052    0.23414    1.000
    Si3742   Si       0.57767    0.87707    0.22181    1.000
    N3743    N        0.62800    0.96825    0.13212    1.000
    Si3744   Si       0.59463    0.83572    0.33637    1.000
    Si3745   Si       0.61186    0.78037    0.30281    1.000
    N3746    N        0.58508    0.81420    0.29973    1.000
    N3747    N        0.59993    0.76575    0.26293    1.000
    N3748    N        0.58176    0.87767    0.32836    1.000
    N3749    N        0.63489    0.81955    0.34094    1.000
    N3750    N        0.59423    0.99581    0.31869    1.000
    Si3751   Si       0.61811    0.90204    0.26439    1.000
    Si3752   Si       0.59374    0.91746    0.34605    1.000
    N3753    N        0.62484    0.93629    0.32325    1.000
    N3754    N        0.61401    0.94321    0.24893    1.000
    N3755    N        0.57527    0.89015    0.26339    1.000
    N3756    N        0.63217    0.85684    0.40850    1.000
    N3757    N        0.59731    0.81974    0.44624    1.000
    Si3758   Si       0.58818    0.84431    0.41213    1.000
    N3759    N        0.59444    0.77220    0.48916    1.000
    Si3760   Si       0.63201    0.76735    0.46423    1.000
    N3761    N        0.60409    0.92448    0.45948    1.000
    N3762    N        0.60420    0.92016    0.38858    1.000
    Si3763   Si       0.59741    0.96410    0.47560    1.000
    Si3764   Si       0.57954    0.91658    0.42295    1.000
    N3765    N        0.58270    0.99371    0.44786    1.000
    Si3766   Si       0.62760    0.81834    0.52411    1.000
    N3767    N        0.61787    0.78357    0.54964    1.000
    Si3768   Si       0.62958    0.77320    0.59013    1.000
    Si3769   Si       0.61543    0.84425    0.61476    1.000
    N3770    N        0.58714    0.83231    0.51380    1.000
    N3771    N        0.58066    0.83431    0.58794    1.000
    Si3772   Si       0.58425    0.76209    0.53021    1.000
    N3773    N        0.58802    0.76218    0.60212    1.000
    Si3774   Si       0.58707    0.93552    0.54888    1.000
    N3775    N        0.58720    0.89221    0.55521    1.000
    N3776    N        0.58928    0.95948    0.58648    1.000
    N3777    N        0.62944    0.92956    0.53529    1.000
    Si3778   Si       0.63051    0.89171    0.56065    1.000
    Si3779   Si       0.61567    0.96501    0.62008    1.000
    N3780    N        0.60196    0.77224    0.72969    1.000
    N3781    N        0.61691    0.84805    0.65739    1.000
    N3782    N        0.58885    0.87186    0.71611    1.000
    Si3783   Si       0.57865    0.86256    0.67466    1.000
    N3784    N        0.59815    0.96815    0.65761    1.000
    N3785    N        0.59307    0.00361    0.71816    1.000
    Si3786   Si       0.61276    0.00254    0.67786    1.000
    Si3787   Si       0.58562    0.96860    0.74435    1.000
    Si3788   Si       0.61077    0.82955    0.80926    1.000
    N3789    N        0.60261    0.78742    0.81608    1.000
    N3790    N        0.61201    0.83427    0.76673    1.000
    N3791    N        0.58263    0.85583    0.82451    1.000
    Si3792   Si       0.61330    0.87447    0.75237    1.000
    Si3793   Si       0.62974    0.80094    0.74475    1.000
    N3794    N        0.58283    0.98020    0.82897    1.000
    N3795    N        0.61909    0.96411    0.77310    1.000
    N3796    N        0.61913    0.91450    0.82430    1.000
    Si3797   Si       0.61717    0.99481    0.80505    1.000
    N3798    N        0.58183    0.90060    0.77069    1.000
    Si3799   Si       0.58022    0.89889    0.81301    1.000
    Si3800   Si       0.62393    0.84182    0.95944    1.000
    N3801    N        0.58666    0.86114    0.94917    1.000
    Si3802   Si       0.61028    0.77840    0.93595    1.000
    N3803    N        0.61673    0.80166    0.97243    1.000
    N3804    N        0.57569    0.79860    0.92013    1.000
    N3805    N        0.57868    0.97835    0.94813    1.000
    Si3806   Si       0.61563    0.96942    0.97393    1.000
    Si3807   Si       0.58352    0.90398    0.95749    1.000
    N3808    N        0.61882    0.92523    0.97167    1.000
    N3809    N        0.66929    0.07507    0.06180    1.000
    Si3810   Si       0.67459    0.04049    0.03338    1.000
    N3811    N        0.65561    0.11830    0.99579    1.000
    Si3812   Si       0.68780    0.21033    0.03976    1.000
    N3813    N        0.66009    0.23856    0.05669    1.000
    N3814    N        0.65474    0.18207    0.02859    1.000
    Si3815   Si       0.67573    0.15452    0.00276    1.000
    N3816    N        0.68553    0.08595    0.12531    1.000
    N3817    N        0.68617    0.01549    0.13298    1.000
    Si3818   Si       0.65415    0.08148    0.19949    1.000
    N3819    N        0.66016    0.12196    0.21104    1.000
    N3820    N        0.68626    0.05307    0.19189    1.000
    Si3821   Si       0.64696    0.10741    0.12925    1.000
    Si3822   Si       0.68791    0.02502    0.22607    1.000
    N3823    N        0.65087    0.23160    0.22693    1.000
    N3824    N        0.65308    0.14932    0.13342    1.000
    Si3825   Si       0.67706    0.19932    0.24610    1.000
    N3826    N        0.66698    0.10886    0.28395    1.000
    Si3827   Si       0.65885    0.04498    0.33797    1.000
    N3828    N        0.68013    0.13094    0.37038    1.000
    N3829    N        0.69661    0.06521    0.32730    1.000
    N3830    N        0.65008    0.17089    0.32298    1.000
    Si3831   Si       0.66093    0.15141    0.28524    1.000
    Si3832   Si       0.64538    0.21375    0.32811    1.000
    N3833    N        0.68512    0.23094    0.32729    1.000
    Si3834   Si       0.64302    0.14487    0.35544    1.000
    N3835    N        0.63927    0.17256    0.25429    1.000
    N3836    N        0.65159    0.06912    0.37602    1.000
    Si3837   Si       0.67006    0.11503    0.47924    1.000
    Si3838   Si       0.65445    0.01570    0.46688    1.000
    N3839    N        0.67650    0.09587    0.44021    1.000
    Si3840   Si       0.64355    0.07677    0.42010    1.000
    N3841    N        0.69588    0.02529    0.45813    1.000
    Si3842   Si       0.63673    0.24171    0.46199    1.000
    N3843    N        0.68278    0.19813    0.40294    1.000
    N3844    N        0.65351    0.15144    0.46719    1.000
    Si3845   Si       0.64032    0.20410    0.40230    1.000
    N3846    N        0.66192    0.22556    0.49532    1.000
    N3847    N        0.67205    0.09932    0.56575    1.000
    Si3848   Si       0.65313    0.06413    0.58468    1.000
    N3849    N        0.65599    0.03089    0.51034    1.000
    N3850    N        0.68625    0.03653    0.57775    1.000
    Si3851   Si       0.64243    0.12667    0.54546    1.000
    N3852    N        0.64011    0.10129    0.50704    1.000
    Si3853   Si       0.68594    0.01681    0.53896    1.000
    N3854    N        0.66135    0.16665    0.53773    1.000
    Si3855   Si       0.66079    0.23526    0.58085    1.000
    Si3856   Si       0.63844    0.20101    0.52234    1.000
    N3857    N        0.65018    0.07454    0.62681    1.000
    N3858    N        0.68299    0.10919    0.67932    1.000
    Si3859   Si       0.68567    0.07394    0.64971    1.000
    Si3860   Si       0.68207    0.01492    0.70465    1.000
    Si3861   Si       0.64563    0.10247    0.70258    1.000
    N3862    N        0.66898    0.01924    0.74569    1.000
    Si3863   Si       0.67228    0.21237    0.65036    1.000
    N3864    N        0.65157    0.24007    0.62319    1.000
    N3865    N        0.64529    0.13403    0.73229    1.000
    Si3866   Si       0.68561    0.14205    0.73817    1.000
    Si3867   Si       0.64941    0.25230    0.71557    1.000
    N3868    N        0.67477    0.22869    0.69058    1.000
    N3869    N        0.65660    0.17177    0.65401    1.000
    N3870    N        0.67096    0.06524    0.79411    1.000
    N3871    N        0.66260    0.06953    0.85752    1.000
    Si3872   Si       0.67580    0.03856    0.82991    1.000
    Si3873   Si       0.65175    0.09561    0.82136    1.000
    Si3874   Si       0.64345    0.04909    0.76390    1.000
    N3875    N        0.66379    0.13569    0.80996    1.000
    Si3876   Si       0.67922    0.17673    0.85849    1.000
    N3877    N        0.65043    0.19947    0.83423    1.000
    Si3878   Si       0.64234    0.12507    0.91170    1.000
    Si3879   Si       0.67462    0.06379    0.89841    1.000
    N3880    N        0.66224    0.08891    0.92986    1.000
    Si3881   Si       0.67646    0.09100    0.97038    1.000
    N3882    N        0.67747    0.01970    0.90063    1.000
    N3883    N        0.68107    0.05267    0.99105    1.000
    Si3884   Si       0.64345    0.19361    0.95074    1.000
    N3885    N        0.66506    0.14675    0.88436    1.000
    N3886    N        0.65571    0.22961    0.92847    1.000
    N3887    N        0.68057    0.18024    0.96812    1.000
    Si3888   Si       0.69326    0.23529    0.91050    1.000
    N3889    N        0.66007    0.30884    0.07314    1.000
    Si3890   Si       0.68271    0.27368    0.06631    1.000
    Si3891   Si       0.64386    0.31304    0.11414    1.000
    Si3892   Si       0.64180    0.32626    0.03764    1.000
    N3893    N        0.63773    0.37035    0.03058    1.000
    N3894    N        0.65362    0.30401    0.00148    1.000
    Si3895   Si       0.67673    0.38641    0.02317    1.000
    Si3896   Si       0.65493    0.41615    0.09476    1.000
    N3897    N        0.68269    0.40843    0.06203    1.000
    N3898    N        0.68166    0.47316    0.00260    1.000
    N3899    N        0.69210    0.48202    0.07502    1.000
    Si3900   Si       0.65385    0.50476    0.07104    1.000
    N3901    N        0.67984    0.32511    0.13668    1.000
    N3902    N        0.68447    0.35793    0.19343    1.000
    Si3903   Si       0.65418    0.35629    0.22693    1.000
    Si3904   Si       0.67369    0.26540    0.24006    1.000
    Si3905   Si       0.68436    0.36726    0.15013    1.000
    N3906    N        0.65380    0.38449    0.12559    1.000
    N3907    N        0.64750    0.44998    0.12109    1.000
    Si3908   Si       0.67386    0.45678    0.15471    1.000
    N3909    N        0.65549    0.46026    0.19483    1.000
    Si3910   Si       0.67410    0.42066    0.20789    1.000
    N3911    N        0.69307    0.41848    0.16557    1.000
    N3912    N        0.64271    0.39803    0.22888    1.000
    N3913    N        0.66748    0.33653    0.32326    1.000
    N3914    N        0.66368    0.28045    0.27845    1.000
    Si3915   Si       0.68684    0.31568    0.29122    1.000
    N3916    N        0.68705    0.34001    0.25384    1.000
    Si3917   Si       0.68439    0.37713    0.32674    1.000
    N3918    N        0.65785    0.39915    0.29981    1.000
    N3919    N        0.68530    0.39657    0.36425    1.000
    N3920    N        0.65430    0.50681    0.29193    1.000
    Si3921   Si       0.64919    0.36723    0.44889    1.000
    N3922    N        0.64971    0.32394    0.43722    1.000
    Si3923   Si       0.68163    0.29715    0.44475    1.000
    N3924    N        0.68700    0.38125    0.46109    1.000
    N3925    N        0.66657    0.25700    0.43562    1.000
    N3926    N        0.68802    0.49968    0.40683    1.000
    Si3927   Si       0.63946    0.47428    0.46400    1.000
    Si3928   Si       0.64461    0.40972    0.37719    1.000
    Si3929   Si       0.64552    0.49248    0.40111    1.000
    Si3930   Si       0.68686    0.42010    0.47700    1.000
    N3931    N        0.67687    0.45352    0.45216    1.000
    N3932    N        0.63071    0.39113    0.41552    1.000
    N3933    N        0.66447    0.34592    0.57166    1.000
    N3934    N        0.67316    0.27361    0.56573    1.000
    Si3935   Si       0.64552    0.30558    0.56097    1.000
    N3936    N        0.64412    0.48624    0.50626    1.000
    N3937    N        0.66087    0.41602    0.51138    1.000
    Si3938   Si       0.67978    0.49180    0.53203    1.000
    N3939    N        0.65570    0.41273    0.57965    1.000
    Si3940   Si       0.68447    0.41776    0.54652    1.000
    N3941    N        0.66952    0.34971    0.70275    1.000
    Si3942   Si       0.67946    0.31018    0.68850    1.000
    Si3943   Si       0.64221    0.37393    0.67586    1.000
    N3944    N        0.64194    0.28965    0.69257    1.000
    Si3945   Si       0.67713    0.36092    0.74375    1.000
    N3946    N        0.66906    0.38232    0.64351    1.000
    N3947    N        0.63969    0.48286    0.69755    1.000
    N3948    N        0.65126    0.45117    0.63360    1.000
    Si3949   Si       0.68470    0.42409    0.64415    1.000
    Si3950   Si       0.65581    0.44222    0.71016    1.000
    N3951    N        0.64790    0.33849    0.81642    1.000
    Si3952   Si       0.64174    0.35540    0.85569    1.000
    Si3953   Si       0.68811    0.32492    0.80938    1.000
    N3954    N        0.66303    0.26118    0.75740    1.000
    N3955    N        0.63651    0.37106    0.75773    1.000
    N3956    N        0.65382    0.39777    0.85792    1.000
    Si3957   Si       0.68636    0.45586    0.82535    1.000
    N3958    N        0.64247    0.45328    0.81621    1.000
    N3959    N        0.66638    0.44727    0.75322    1.000
    N3960    N        0.69118    0.45606    0.86800    1.000
    Si3961   Si       0.67888    0.29119    0.87085    1.000
    Si3962   Si       0.69100    0.32034    0.98462    1.000
    N3963    N        0.64445    0.26348    0.87264    1.000
    N3964    N        0.68263    0.34551    0.95041    1.000
    N3965    N        0.66518    0.33175    0.88206    1.000
    Si3966   Si       0.65107    0.33586    0.92321    1.000
    N3967    N        0.68762    0.40555    0.98440    1.000
    N3968    N        0.68754    0.47206    0.93553    1.000
    N3969    N        0.67861    0.40771    0.92034    1.000
    Si3970   Si       0.68849    0.41511    0.87918    1.000
    Si3971   Si       0.67229    0.44485    0.96790    1.000
    N3972    N        0.67212    0.53171    0.03932    1.000
    N3973    N        0.65570    0.60301    0.11205    1.000
    N3974    N        0.64560    0.53488    0.09916    1.000
    Si3975   Si       0.64906    0.62746    0.07578    1.000
    N3976    N        0.68161    0.62591    0.04556    1.000
    Si3977   Si       0.66780    0.63205    0.00787    1.000
    Si3978   Si       0.66064    0.51073    0.00336    1.000
    N3979    N        0.68329    0.72549    0.07662    1.000
    Si3980   Si       0.65268    0.70729    0.10130    1.000
    N3981    N        0.64685    0.66453    0.09788    1.000
    N3982    N        0.64372    0.70767    0.02794    1.000
    Si3983   Si       0.68780    0.70586    0.03593    1.000
    N3984    N        0.69328    0.54079    0.19432    1.000
    Si3985   Si       0.66240    0.56312    0.12780    1.000
    Si3986   Si       0.65200    0.55620    0.19992    1.000
    N3987    N        0.63723    0.52576    0.22619    1.000
    N3988    N        0.66333    0.71449    0.14425    1.000
    N3989    N        0.66614    0.66181    0.20731    1.000
    N3990    N        0.67189    0.75206    0.24163    1.000
    N3991    N        0.69512    0.65240    0.14972    1.000
    Si3992   Si       0.68023    0.68586    0.17384    1.000
    Si3993   Si       0.65483    0.63879    0.13400    1.000
    Si3994   Si       0.69078    0.74766    0.15571    1.000
    Si3995   Si       0.64742    0.54050    0.26579    1.000
    Si3996   Si       0.67829    0.61899    0.31726    1.000
    N3997    N        0.64990    0.59416    0.33812    1.000
    N3998    N        0.68365    0.56455    0.26059    1.000
    N3999    N        0.63935    0.70082    0.29490    1.000
    N4000    N        0.68354    0.65463    0.33948    1.000
    N4001    N        0.66029    0.64202    0.28435    1.000
    Si4002   Si       0.67626    0.73310    0.28139    1.000
    Si4003   Si       0.67773    0.67916    0.30536    1.000
    Si4004   Si       0.67432    0.72127    0.36008    1.000
    Si4005   Si       0.68081    0.65268    0.24693    1.000
    N4006    N        0.69620    0.71459    0.32239    1.000
    Si4007   Si       0.66037    0.58909    0.38260    1.000
    N4008    N        0.66508    0.55953    0.46556    1.000
    Si4009   Si       0.67471    0.59628    0.48745    1.000
    N4010    N        0.67842    0.62787    0.39883    1.000
    N4011    N        0.63944    0.62635    0.46182    1.000
    Si4012   Si       0.66223    0.70132    0.48690    1.000
    N4013    N        0.66574    0.74473    0.48204    1.000
    N4014    N        0.65956    0.68603    0.44438    1.000
    Si4015   Si       0.67375    0.64366    0.43750    1.000
    N4016    N        0.63475    0.70833    0.37051    1.000
    N4017    N        0.67752    0.52364    0.56299    1.000
    N4018    N        0.64290    0.59685    0.51725    1.000
    Si4019   Si       0.63827    0.51888    0.58353    1.000
    N4020    N        0.68389    0.66632    0.59085    1.000
    N4021    N        0.69165    0.68983    0.51624    1.000
    N4022    N        0.64205    0.73112    0.60127    1.000
    Si4023   Si       0.64210    0.65120    0.59448    1.000
    N4024    N        0.64731    0.54872    0.70642    1.000
    Si4025   Si       0.68711    0.54772    0.72002    1.000
    N4026    N        0.68674    0.63753    0.65573    1.000
    Si4027   Si       0.66940    0.74027    0.63476    1.000
    Si4028   Si       0.64501    0.63791    0.66596    1.000
    N4029    N        0.68968    0.69917    0.72167    1.000
    N4030    N        0.64499    0.64534    0.70951    1.000
    Si4031   Si       0.68436    0.65395    0.72899    1.000
    N4032    N        0.64986    0.75659    0.67157    1.000
    N4033    N        0.68519    0.53922    0.82892    1.000
    N4034    N        0.67927    0.60548    0.81595    1.000
    Si4035   Si       0.65106    0.54246    0.85469    1.000
    N4036    N        0.67907    0.54579    0.76265    1.000
    Si4037   Si       0.64539    0.60283    0.84188    1.000
    N4038    N        0.65037    0.71182    0.77984    1.000
    N4039    N        0.68147    0.67242    0.83678    1.000
    Si4040   Si       0.64423    0.67865    0.85578    1.000
    Si4041   Si       0.69042    0.70256    0.76501    1.000
    N4042    N        0.65324    0.75361    0.83646    1.000
    N4043    N        0.67284    0.53374    0.96707    1.000
    N4044    N        0.66133    0.59957    0.97927    1.000
    N4045    N        0.65983    0.57942    0.87906    1.000
    Si4046   Si       0.64441    0.61423    0.90315    1.000
    N4047    N        0.68616    0.52208    0.89788    1.000
    Si4048   Si       0.69284    0.57164    0.97033    1.000
    Si4049   Si       0.66502    0.50984    0.93274    1.000
    Si4050   Si       0.66617    0.68415    0.92474    1.000
    N4051    N        0.68326    0.66967    0.99204    1.000
    N4052    N        0.67305    0.64290    0.91499    1.000
    Si4053   Si       0.64077    0.68380    0.99223    1.000
    N4054    N        0.65198    0.70452    0.88958    1.000
    Si4055   Si       0.66091    0.74489    0.87900    1.000
    N4056    N        0.65748    0.84675    0.05603    1.000
    Si4057   Si       0.67392    0.80692    0.04900    1.000
    Si4058   Si       0.67438    0.87273    0.08830    1.000
    N4059    N        0.64364    0.77869    0.04054    1.000
    N4060    N        0.69520    0.79270    0.08503    1.000
    N4061    N        0.66032    0.98476    0.07583    1.000
    N4062    N        0.66778    0.98990    0.01374    1.000
    N4063    N        0.64779    0.90555    0.09830    1.000
    N4064    N        0.68763    0.91816    0.00630    1.000
    Si4065   Si       0.64932    0.00208    0.11337    1.000
    Si4066   Si       0.69502    0.98028    0.04953    1.000
    N4067    N        0.66690    0.84733    0.12340    1.000
    Si4068   Si       0.68971    0.81158    0.12274    1.000
    N4069    N        0.66582    0.78216    0.14254    1.000
    N4070    N        0.68194    0.86036    0.20287    1.000
    Si4071   Si       0.64318    0.84189    0.21358    1.000
    N4072    N        0.64787    0.81151    0.24364    1.000
    N4073    N        0.69276    0.94508    0.14166    1.000
    Si4074   Si       0.65979    0.89899    0.20315    1.000
    N4075    N        0.65215    0.99914    0.22288    1.000
    N4076    N        0.64230    0.90180    0.16347    1.000
    N4077    N        0.67575    0.92996    0.22701    1.000
    Si4078   Si       0.65266    0.93138    0.13252    1.000
    Si4079   Si       0.65282    0.96171    0.24445    1.000
    N4080    N        0.65442    0.77014    0.29839    1.000
    Si4081   Si       0.67107    0.79681    0.33382    1.000
    Si4082   Si       0.68182    0.79482    0.26735    1.000
    N4083    N        0.67321    0.76383    0.36203    1.000
    N4084    N        0.68871    0.82421    0.30209    1.000
    Si4085   Si       0.68790    0.86458    0.28965    1.000
    N4086    N        0.65163    0.88567    0.35746    1.000
    N4087    N        0.65065    0.88634    0.28828    1.000
    Si4088   Si       0.66214    0.91296    0.32707    1.000
    N4089    N        0.66553    0.97021    0.28421    1.000
    N4090    N        0.68677    0.93928    0.35453    1.000
    N4091    N        0.66020    0.00214    0.34611    1.000
    Si4092   Si       0.63556    0.97784    0.31665    1.000
    Si4093   Si       0.65290    0.84472    0.37054    1.000
    N4094    N        0.65119    0.81390    0.48781    1.000
    N4095    N        0.68185    0.85100    0.44919    1.000
    Si4096   Si       0.68359    0.78344    0.39955    1.000
    N4097    N        0.65418    0.78832    0.42973    1.000
    Si4098   Si       0.64307    0.82808    0.44495    1.000
    Si4099   Si       0.69192    0.83187    0.48598    1.000
    N4100    N        0.69043    0.82127    0.37501    1.000
    Si4101   Si       0.64246    0.90070    0.39700    1.000
    N4102    N        0.66505    0.91664    0.42843    1.000
    N4103    N        0.64028    0.97595    0.47278    1.000
    N4104    N        0.68379    0.93285    0.49422    1.000
    Si4105   Si       0.64973    0.93433    0.46472    1.000
    Si4106   Si       0.68390    0.86234    0.55342    1.000
    Si4107   Si       0.68363    0.81402    0.61507    1.000
    N4108    N        0.64414    0.85227    0.54345    1.000
    N4109    N        0.64140    0.81051    0.60613    1.000
    N4110    N        0.63673    0.88154    0.60372    1.000
    Si4111   Si       0.67163    0.94039    0.53695    1.000
    Si4112   Si       0.67243    0.90741    0.60954    1.000
    N4113    N        0.67591    0.97605    0.55847    1.000
    N4114    N        0.67904    0.90531    0.56435    1.000
    Si4115   Si       0.67578    0.99683    0.59726    1.000
    N4116    N        0.63510    0.00171    0.61156    1.000
    Si4117   Si       0.67915    0.78881    0.68228    1.000
    N4118    N        0.65462    0.81347    0.71212    1.000
    N4119    N        0.68341    0.82492    0.65741    1.000
    Si4120   Si       0.65395    0.84577    0.68150    1.000
    N4121    N        0.68015    0.87914    0.69704    1.000
    Si4122   Si       0.67932    0.96428    0.65563    1.000
    N4123    N        0.65673    0.94424    0.62347    1.000
    Si4124   Si       0.68890    0.88842    0.74202    1.000
    N4125    N        0.65634    0.99389    0.67835    1.000
    N4126    N        0.65437    0.83122    0.82156    1.000
    Si4127   Si       0.66649    0.78969    0.81484    1.000
    N4128    N        0.65397    0.77834    0.77498    1.000
    Si4129   Si       0.68467    0.84630    0.85003    1.000
    N4130    N        0.67217    0.88398    0.86823    1.000
    Si4131   Si       0.65435    0.91913    0.84898    1.000
    N4132    N        0.67857    0.93028    0.81089    1.000
    N4133    N        0.64956    0.89590    0.76016    1.000
    Si4134   Si       0.64033    0.92803    0.78804    1.000
    N4135    N        0.64874    0.00501    0.83298    1.000
    N4136    N        0.68942    0.81148    0.87388    1.000
    Si4137   Si       0.67076    0.80619    0.91529    1.000
    N4138    N        0.65364    0.84381    0.92640    1.000
    Si4139   Si       0.68119    0.87443    0.91153    1.000
    N4140    N        0.64173    0.77228    0.90809    1.000
    N4141    N        0.64103    0.86778    0.99144    1.000
    N4142    N        0.65107    0.95111    0.88060    1.000
    N4143    N        0.67189    0.90678    0.93710    1.000
    N4144    N        0.65319    0.97260    0.94811    1.000
    Si4145   Si       0.64765    0.99580    0.87645    1.000
    Si4146   Si       0.67223    0.94711    0.92044    1.000
    Si4147   Si       0.65698    0.90530    0.97721    1.000
    Si4148   Si       0.66824    0.00823    0.97187    1.000
    N4149    N        0.74122    0.07366    0.08445    1.000
    N4150    N        0.70871    0.02187    0.05345    1.000
    Si4151   Si       0.74684    0.04107    0.05634    1.000
    Si4152   Si       0.70086    0.09398    0.08541    1.000
    N4153    N        0.75061    0.05894    0.01697    1.000
    N4154    N        0.71062    0.13730    0.09259    1.000
    N4155    N        0.71571    0.20023    0.07213    1.000
    N4156    N        0.71438    0.15547    0.02089    1.000
    Si4157   Si       0.73047    0.16094    0.06134    1.000
    Si4158   Si       0.72162    0.22370    0.10959    1.000
    N4159    N        0.71309    0.22144    0.00621    1.000
    N4160    N        0.74380    0.05695    0.15151    1.000
    N4161    N        0.73324    0.12686    0.23595    1.000
    Si4162   Si       0.69947    0.05311    0.15153    1.000
    Si4163   Si       0.72661    0.19424    0.18029    1.000
    N4164    N        0.71028    0.19292    0.14076    1.000
    N4165    N        0.71489    0.13261    0.16767    1.000
    Si4166   Si       0.74007    0.23432    0.23524    1.000
    N4167    N        0.73979    0.23493    0.19226    1.000
    Si4168   Si       0.69964    0.13763    0.20724    1.000
    N4169    N        0.69973    0.18162    0.21261    1.000
    Si4170   Si       0.69699    0.15092    0.13126    1.000
    Si4171   Si       0.73862    0.03617    0.25921    1.000
    N4172    N        0.73871    0.11196    0.33934    1.000
    Si4173   Si       0.70342    0.09619    0.35838    1.000
    Si4174   Si       0.70257    0.08266    0.28769    1.000
    N4175    N        0.74612    0.07852    0.27922    1.000
    N4176    N        0.69583    0.05103    0.25980    1.000
    Si4177   Si       0.72323    0.21919    0.34488    1.000
    N4178    N        0.72799    0.17728    0.35422    1.000
    Si4179   Si       0.73703    0.16307    0.25913    1.000
    N4180    N        0.70338    0.23767    0.25746    1.000
    N4181    N        0.74537    0.23302    0.31149    1.000
    N4182    N        0.69852    0.17241    0.27436    1.000
    N4183    N        0.74868    0.08702    0.45049    1.000
    N4184    N        0.71972    0.07516    0.39217    1.000
    Si4185   Si       0.71636    0.10141    0.42598    1.000
    Si4186   Si       0.74198    0.03951    0.38230    1.000
    Si4187   Si       0.74689    0.10969    0.48873    1.000
    Si4188   Si       0.72975    0.00756    0.47709    1.000
    N4189    N        0.72654    0.14297    0.41761    1.000
    Si4190   Si       0.70549    0.16370    0.38791    1.000
    Si4191   Si       0.70574    0.23095    0.49336    1.000
    N4192    N        0.72560    0.24491    0.38048    1.000
    N4193    N        0.72440    0.23462    0.45287    1.000
    Si4194   Si       0.70059    0.23826    0.41648    1.000
    Si4195   Si       0.71165    0.10783    0.54784    1.000
    N4196    N        0.73860    0.07696    0.55688    1.000
    Si4197   Si       0.72606    0.05338    0.59170    1.000
    N4198    N        0.70645    0.11196    0.50338    1.000
    N4199    N        0.74994    0.01991    0.60016    1.000
    N4200    N        0.72065    0.00420    0.51839    1.000
    N4201    N        0.72219    0.14614    0.56455    1.000
    N4202    N        0.72098    0.19597    0.51388    1.000
    Si4203   Si       0.72686    0.22699    0.60638    1.000
    Si4204   Si       0.70147    0.17913    0.54949    1.000
    N4205    N        0.69692    0.21058    0.57960    1.000
    N4206    N        0.72248    0.08197    0.62580    1.000
    Si4207   Si       0.71354    0.08532    0.70200    1.000
    N4208    N        0.70159    0.10077    0.74016    1.000
    N4209    N        0.69535    0.05070    0.68617    1.000
    Si4210   Si       0.69221    0.15007    0.66714    1.000
    Si4211   Si       0.73568    0.18161    0.73206    1.000
    N4212    N        0.71625    0.21298    0.64642    1.000
    N4213    N        0.73130    0.14670    0.64646    1.000
    Si4214   Si       0.71755    0.24360    0.69012    1.000
    N4215    N        0.70380    0.16569    0.70722    1.000
    N4216    N        0.74121    0.22500    0.72482    1.000
    N4217    N        0.72888    0.10539    0.80640    1.000
    N4218    N        0.71642    0.03120    0.83665    1.000
    Si4219   Si       0.70685    0.08008    0.77852    1.000
    N4220    N        0.73284    0.04753    0.76532    1.000
    Si4221   Si       0.73731    0.04527    0.87006    1.000
    Si4222   Si       0.70761    0.14443    0.80555    1.000
    N4223    N        0.71712    0.16812    0.83786    1.000
    Si4224   Si       0.73774    0.20260    0.85952    1.000
    N4225    N        0.71066    0.16507    0.76710    1.000
    N4226    N        0.75231    0.05643    0.95236    1.000
    N4227    N        0.71765    0.07265    0.89824    1.000
    N4228    N        0.71534    0.10861    0.96515    1.000
    Si4229   Si       0.73946    0.09137    0.93036    1.000
    Si4230   Si       0.72568    0.04155    0.98387    1.000
    N4231    N        0.74854    0.01093    0.89368    1.000
    N4232    N        0.72713    0.23235    0.94045    1.000
    Si4233   Si       0.72003    0.20103    0.96981    1.000
    N4234    N        0.74570    0.16743    0.95907    1.000
    N4235    N        0.70040    0.20935    0.87821    1.000
    Si4236   Si       0.73728    0.13743    0.99001    1.000
    N4237    N        0.71438    0.28177    0.03740    1.000
    N4238    N        0.72622    0.32402    0.08700    1.000
    Si4239   Si       0.72554    0.32290    0.04291    1.000
    Si4240   Si       0.75017    0.35637    0.10350    1.000
    Si4241   Si       0.73219    0.26195    0.00270    1.000
    N4242    N        0.70137    0.26227    0.10481    1.000
    N4243    N        0.69889    0.34838    0.01970    1.000
    N4244    N        0.75044    0.38236    0.06844    1.000
    Si4245   Si       0.72579    0.41794    0.07273    1.000
    Si4246   Si       0.72086    0.48146    0.10764    1.000
    Si4247   Si       0.71063    0.47505    0.03481    1.000
    N4248    N        0.73224    0.44033    0.11124    1.000
    N4249    N        0.74124    0.44207    0.03922    1.000
    Si4250   Si       0.71292    0.30163    0.12293    1.000
    N4251    N        0.72568    0.37244    0.13474    1.000
    Si4252   Si       0.70785    0.33099    0.21474    1.000
    N4253    N        0.74307    0.29781    0.15305    1.000
    N4254    N        0.74947    0.33649    0.21709    1.000
    N4255    N        0.69697    0.28888    0.21299    1.000
    Si4256   Si       0.73339    0.41328    0.14584    1.000
    N4257    N        0.70059    0.48989    0.14555    1.000
    Si4258   Si       0.72591    0.46399    0.23890    1.000
    N4259    N        0.70018    0.42785    0.24099    1.000
    N4260    N        0.74500    0.46007    0.20070    1.000
    N4261    N        0.72321    0.29618    0.30272    1.000
    Si4262   Si       0.70735    0.25386    0.29743    1.000
    N4263    N        0.71782    0.38274    0.29904    1.000
    N4264    N        0.71053    0.45035    0.30089    1.000
    Si4265   Si       0.69720    0.49410    0.29465    1.000
    N4266    N        0.70642    0.49954    0.25018    1.000
    N4267    N        0.75231    0.38476    0.35736    1.000
    Si4268   Si       0.69353    0.41516    0.28034    1.000
    Si4269   Si       0.71883    0.35345    0.45239    1.000
    N4270    N        0.71420    0.29328    0.41608    1.000
    N4271    N        0.72838    0.36381    0.41040    1.000
    N4272    N        0.70964    0.31798    0.47362    1.000
    Si4273   Si       0.74672    0.28023    0.39358    1.000
    Si4274   Si       0.73632    0.47306    0.49404    1.000
    Si4275   Si       0.70999    0.46539    0.42759    1.000
    N4276    N        0.74403    0.47920    0.45102    1.000
    Si4277   Si       0.72315    0.40008    0.38487    1.000
    N4278    N        0.72925    0.44155    0.39655    1.000
    N4279    N        0.72423    0.43249    0.49468    1.000
    N4280    N        0.72442    0.35164    0.60435    1.000
    N4281    N        0.72401    0.32063    0.54343    1.000
    Si4282   Si       0.70580    0.35277    0.56522    1.000
    Si4283   Si       0.71505    0.27968    0.55830    1.000
    Si4284   Si       0.73818    0.30557    0.50354    1.000
    N4285    N        0.73147    0.26927    0.59753    1.000
    N4286    N        0.72469    0.26073    0.51877    1.000
    N4287    N        0.71856    0.39044    0.55197    1.000
    Si4288   Si       0.72470    0.45725    0.58587    1.000
    N4289    N        0.73999    0.49742    0.58039    1.000
    N4290    N        0.69714    0.45709    0.55275    1.000
    N4291    N        0.70899    0.50515    0.50085    1.000
    N4292    N        0.74943    0.26163    0.66431    1.000
    N4293    N        0.69966    0.31228    0.65107    1.000
    Si4294   Si       0.70319    0.35544    0.64218    1.000
    N4295    N        0.70594    0.28384    0.71112    1.000
    N4296    N        0.72725    0.37105    0.67361    1.000
    Si4297   Si       0.73847    0.29362    0.63428    1.000
    N4298    N        0.72234    0.43509    0.62289    1.000
    N4299    N        0.70493    0.39349    0.74077    1.000
    Si4300   Si       0.71998    0.40190    0.70228    1.000
    N4301    N        0.69092    0.43130    0.68769    1.000
    N4302    N        0.72003    0.35165    0.82303    1.000
    Si4303   Si       0.73746    0.27374    0.82074    1.000
    N4304    N        0.72896    0.26518    0.77825    1.000
    N4305    N        0.70048    0.29136    0.83356    1.000
    Si4306   Si       0.69870    0.28404    0.75249    1.000
    N4307    N        0.68951    0.32632    0.76676    1.000
    Si4308   Si       0.73435    0.39829    0.82711    1.000
    N4309    N        0.70935    0.48389    0.80326    1.000
    Si4310   Si       0.70351    0.42951    0.76659    1.000
    N4311    N        0.74314    0.44700    0.76040    1.000
    N4312    N        0.70145    0.41974    0.80684    1.000
    N4313    N        0.72608    0.39697    0.87131    1.000
    Si4314   Si       0.75053    0.46665    0.79917    1.000
    Si4315   Si       0.73346    0.27571    0.93405    1.000
    N4316    N        0.72101    0.29043    0.97263    1.000
    N4317    N        0.70358    0.27901    0.90424    1.000
    N4318    N        0.74219    0.38385    0.93650    1.000
    Si4319   Si       0.70742    0.48165    0.89877    1.000
    N4320    N        0.75058    0.48136    0.89545    1.000
    Si4321   Si       0.70131    0.38414    0.94889    1.000
    N4322    N        0.72654    0.62122    0.09941    1.000
    Si4323   Si       0.73562    0.57848    0.10844    1.000
    N4324    N        0.73891    0.55950    0.07070    1.000
    Si4325   Si       0.71218    0.54694    0.03621    1.000
    N4326    N        0.72461    0.57102    0.00198    1.000
    N4327    N        0.73523    0.51035    0.03021    1.000
    Si4328   Si       0.72108    0.63646    0.06025    1.000
    N4329    N        0.72111    0.67897    0.04808    1.000
    N4330    N        0.71112    0.72946    0.00447    1.000
    Si4331   Si       0.71423    0.75293    0.08680    1.000
    N4332    N        0.74749    0.75099    0.05710    1.000
    N4333    N        0.70437    0.55690    0.13211    1.000
    Si4334   Si       0.70978    0.54056    0.23357    1.000
    Si4335   Si       0.71517    0.52822    0.16207    1.000
    N4336    N        0.74424    0.56693    0.24257    1.000
    Si4337   Si       0.70979    0.74929    0.21752    1.000
    N4338    N        0.70526    0.71794    0.18727    1.000
    N4339    N        0.74997    0.74756    0.23300    1.000
    Si4340   Si       0.73442    0.64622    0.13399    1.000
    N4341    N        0.72468    0.74700    0.12876    1.000
    N4342    N        0.71577    0.59591    0.31375    1.000
    Si4343   Si       0.71879    0.59184    0.26899    1.000
    N4344    N        0.71789    0.52185    0.32071    1.000
    Si4345   Si       0.71774    0.56040    0.33954    1.000
    N4346    N        0.71901    0.63534    0.25626    1.000
    Si4347   Si       0.73673    0.72654    0.30982    1.000
    Si4348   Si       0.73671    0.67512    0.25896    1.000
    N4349    N        0.74510    0.64664    0.36029    1.000
    N4350    N        0.69598    0.69201    0.26584    1.000
    N4351    N        0.72919    0.55115    0.44002    1.000
    Si4352   Si       0.71327    0.53408    0.40281    1.000
    Si4353   Si       0.70418    0.54221    0.47637    1.000
    N4354    N        0.70213    0.62365    0.46426    1.000
    N4355    N        0.75104    0.51476    0.38772    1.000
    N4356    N        0.69450    0.56410    0.37722    1.000
    N4357    N        0.75406    0.66543    0.48832    1.000
    N4358    N        0.69946    0.70249    0.38802    1.000
    Si4359   Si       0.74235    0.63794    0.45551    1.000
    Si4360   Si       0.70631    0.65915    0.37933    1.000
    N4361    N        0.73596    0.66000    0.41905    1.000
    N4362    N        0.72227    0.71759    0.45953    1.000
    Si4363   Si       0.72580    0.72152    0.41646    1.000
    Si4364   Si       0.70996    0.75548    0.47593    1.000
    Si4365   Si       0.71521    0.53142    0.58556    1.000
    Si4366   Si       0.72757    0.59101    0.53839    1.000
    N4367    N        0.73749    0.56664    0.57264    1.000
    N4368    N        0.70906    0.57373    0.50466    1.000
    N4369    N        0.70509    0.62712    0.54312    1.000
    N4370    N        0.73147    0.74275    0.51387    1.000
    N4371    N        0.74593    0.67992    0.55346    1.000
    Si4372   Si       0.73110    0.69969    0.50087    1.000
    Si4373   Si       0.70422    0.66887    0.55263    1.000
    N4374    N        0.75392    0.72418    0.61323    1.000
    N4375    N        0.70597    0.54097    0.62656    1.000
    Si4376   Si       0.72762    0.56019    0.65907    1.000
    Si4377   Si       0.71682    0.61633    0.67780    1.000
    N4378    N        0.74249    0.59780    0.64636    1.000
    N4379    N        0.70599    0.57742    0.69299    1.000
    N4380    N        0.71542    0.51546    0.71858    1.000
    N4381    N        0.74943    0.70007    0.68889    1.000
    N4382    N        0.74575    0.66368    0.63446    1.000
    Si4383   Si       0.70358    0.66843    0.63173    1.000
    N4384    N        0.72192    0.64054    0.71247    1.000
    Si4385   Si       0.70955    0.71790    0.68859    1.000
    N4386    N        0.69353    0.70697    0.64801    1.000
    N4387    N        0.73485    0.55544    0.79560    1.000
    N4388    N        0.72641    0.57673    0.86420    1.000
    Si4389   Si       0.70899    0.57410    0.82385    1.000
    Si4390   Si       0.70254    0.52442    0.79236    1.000
    N4391    N        0.73868    0.63302    0.82576    1.000
    Si4392   Si       0.75362    0.60991    0.86049    1.000
    N4393    N        0.72327    0.72761    0.77274    1.000
    Si4394   Si       0.69897    0.64285    0.81078    1.000
    N4395    N        0.69448    0.65991    0.77121    1.000
    N4396    N        0.71351    0.57805    0.93177    1.000
    Si4397   Si       0.69865    0.56410    0.89442    1.000
    N4398    N        0.75163    0.62890    0.89934    1.000
    Si4399   Si       0.71423    0.69690    0.97835    1.000
    N4400    N        0.70289    0.70193    0.93723    1.000
    N4401    N        0.70625    0.74852    0.88325    1.000
    N4402    N        0.75203    0.67893    0.98836    1.000
    Si4403   Si       0.73048    0.72430    0.91149    1.000
    N4404    N        0.70582    0.80119    0.02053    1.000
    Si4405   Si       0.74058    0.82378    0.00531    1.000
    Si4406   Si       0.73124    0.76448    0.02024    1.000
    N4407    N        0.71770    0.87182    0.08613    1.000
    Si4408   Si       0.75339    0.87034    0.06112    1.000
    Si4409   Si       0.74150    0.86263    0.12088    1.000
    Si4410   Si       0.71943    0.92696    0.03216    1.000
    N4411    N        0.73574    0.96744    0.02307    1.000
    Si4412   Si       0.72214    0.93291    0.11218    1.000
    N4413    N        0.70814    0.93957    0.07043    1.000
    N4414    N        0.75128    0.90105    0.02958    1.000
    N4415    N        0.74307    0.97345    0.11765    1.000
    Si4416   Si       0.71518    0.84582    0.22541    1.000
    N4417    N        0.72833    0.82638    0.13689    1.000
    Si4418   Si       0.74119    0.80760    0.17340    1.000
    N4419    N        0.71026    0.78061    0.18708    1.000
    N4420    N        0.74989    0.84084    0.19962    1.000
    N4421    N        0.74081    0.93214    0.20737    1.000
    Si4422   Si       0.74687    0.97465    0.21682    1.000
    Si4423   Si       0.71421    0.91531    0.23855    1.000
    N4424    N        0.74249    0.90328    0.13868    1.000
    N4425    N        0.73604    0.99661    0.18111    1.000
    Si4426   Si       0.71291    0.98285    0.14621    1.000
    N4427    N        0.71926    0.99488    0.24627    1.000
    Si4428   Si       0.74691    0.78057    0.25994    1.000
    N4429    N        0.71689    0.87642    0.25874    1.000
    N4430    N        0.71885    0.75827    0.28618    1.000
    N4431    N        0.71632    0.80834    0.24491    1.000
    N4432    N        0.70691    0.88997    0.31943    1.000
    N4433    N        0.72805    0.93684    0.27519    1.000
    Si4434   Si       0.70835    0.97513    0.28430    1.000
    Si4435   Si       0.71873    0.90866    0.35703    1.000
    N4436    N        0.72457    0.98779    0.32063    1.000
    Si4437   Si       0.73953    0.90022    0.29340    1.000
    Si4438   Si       0.69682    0.98145    0.35653    1.000
    Si4439   Si       0.72822    0.84165    0.38110    1.000
    N4440    N        0.72273    0.79823    0.47960    1.000
    N4441    N        0.71841    0.76638    0.41921    1.000
    N4442    N        0.74672    0.83441    0.42034    1.000
    N4443    N        0.73388    0.96979    0.45668    1.000
    N4444    N        0.73460    0.90091    0.45409    1.000
    N4445    N        0.71256    0.88273    0.39038    1.000
    N4446    N        0.72232    0.99709    0.38862    1.000
    Si4447   Si       0.69838    0.88858    0.43339    1.000
    Si4448   Si       0.75175    0.98667    0.42108    1.000
    Si4449   Si       0.72504    0.93528    0.48035    1.000
    N4450    N        0.70575    0.85901    0.51593    1.000
    Si4451   Si       0.74421    0.82711    0.57705    1.000
    Si4452   Si       0.74527    0.87578    0.51562    1.000
    N4453    N        0.74380    0.78402    0.57770    1.000
    Si4454   Si       0.73817    0.76342    0.61554    1.000
    N4455    N        0.70024    0.83674    0.58291    1.000
    N4456    N        0.74739    0.91977    0.51602    1.000
    N4457    N        0.71195    0.76186    0.68807    1.000
    N4458    N        0.74767    0.82961    0.70118    1.000
    Si4459   Si       0.75148    0.78632    0.68811    1.000
    N4460    N        0.69522    0.77195    0.62027    1.000
    Si4461   Si       0.74821    0.83049    0.74620    1.000
    Si4462   Si       0.72617    0.95174    0.71521    1.000
    N4463    N        0.70451    0.94003    0.68088    1.000
    Si4464   Si       0.74979    0.99359    0.63491    1.000
    N4465    N        0.72140    0.99565    0.71884    1.000
    Si4466   Si       0.70855    0.89841    0.67080    1.000
    N4467    N        0.70790    0.89398    0.62826    1.000
    N4468    N        0.70429    0.98978    0.63028    1.000
    N4469    N        0.70900    0.92543    0.74462    1.000
    N4470    N        0.72537    0.85572    0.83591    1.000
    N4471    N        0.70969    0.78365    0.81832    1.000
    Si4472   Si       0.74075    0.86709    0.79618    1.000
    N4473    N        0.71687    0.85846    0.76007    1.000
    Si4474   Si       0.71948    0.78241    0.86043    1.000
    Si4475   Si       0.73105    0.76908    0.78436    1.000
    N4476    N        0.74528    0.78793    0.74963    1.000
    Si4477   Si       0.74781    0.86989    0.87315    1.000
    Si4478   Si       0.70925    0.01039    0.75946    1.000
    Si4479   Si       0.74155    0.00012    0.82198    1.000
    N4480    N        0.72058    0.97962    0.78847    1.000
    Si4481   Si       0.71443    0.93644    0.78789    1.000
    N4482    N        0.74879    0.90987    0.79821    1.000
    N4483    N        0.74572    0.91252    0.86788    1.000
    Si4484   Si       0.73439    0.83275    0.94035    1.000
    N4485    N        0.72428    0.86043    0.90966    1.000
    N4486    N        0.73552    0.85619    0.97604    1.000
    N4487    N        0.70393    0.80106    0.94320    1.000
    N4488    N        0.71020    0.96054    0.90717    1.000
    Si4489   Si       0.71472    0.00396    0.91929    1.000
    Si4490   Si       0.74566    0.95449    0.88318    1.000
    N4491    N        0.71528    0.00333    0.96301    1.000
    Si4492   Si       0.74435    0.97502    0.97858    1.000
    Si4493   Si       0.78827    0.08190    0.01145    1.000
    N4494    N        0.80192    0.05201    0.10927    1.000
    N4495    N        0.78152    0.01281    0.06069    1.000
    N4496    N        0.77524    0.12332    0.00486    1.000
    Si4497   Si       0.76654    0.07659    0.11981    1.000
    N4498    N        0.80052    0.19093    0.00643    1.000
    Si4499   Si       0.78987    0.14933    0.10475    1.000
    N4500    N        0.77288    0.15698    0.06440    1.000
    Si4501   Si       0.79852    0.15283    0.02870    1.000
    Si4502   Si       0.80114    0.22934    0.02579    1.000
    Si4503   Si       0.79934    0.22543    0.10958    1.000
    N4504    N        0.80882    0.22170    0.06734    1.000
    N4505    N        0.78207    0.10796    0.19999    1.000
    N4506    N        0.80223    0.01955    0.17137    1.000
    N4507    N        0.77326    0.11843    0.13166    1.000
    Si4508   Si       0.76185    0.03185    0.18415    1.000
    Si4509   Si       0.76458    0.09244    0.23905    1.000
    N4510    N        0.75781    0.04983    0.22280    1.000
    Si4511   Si       0.76039    0.13083    0.17035    1.000
    Si4512   Si       0.78998    0.19206    0.20841    1.000
    N4513    N        0.75824    0.19568    0.24111    1.000
    N4514    N        0.80776    0.18540    0.12184    1.000
    N4515    N        0.76473    0.17185    0.18055    1.000
    N4516    N        0.76090    0.23925    0.12371    1.000
    N4517    N        0.81068    0.16183    0.23375    1.000
    Si4518   Si       0.76413    0.08090    0.32024    1.000
    N4519    N        0.77280    0.01715    0.28222    1.000
    N4520    N        0.76436    0.04377    0.34296    1.000
    N4521    N        0.80353    0.09643    0.32560    1.000
    N4522    N        0.80847    0.09525    0.25457    1.000
    Si4523   Si       0.76529    0.00433    0.32255    1.000
    N4524    N        0.76579    0.15598    0.29338    1.000
    N4525    N        0.79527    0.16365    0.35395    1.000
    Si4526   Si       0.77934    0.24756    0.29054    1.000
    Si4527   Si       0.80237    0.17396    0.27509    1.000
    Si4528   Si       0.75710    0.15332    0.33395    1.000
    N4529    N        0.77075    0.02678    0.41362    1.000
    N4530    N        0.76717    0.02840    0.47625    1.000
    Si4531   Si       0.77882    0.05414    0.44494    1.000
    N4532    N        0.80051    0.13790    0.41922    1.000
    Si4533   Si       0.76383    0.15564    0.43450    1.000
    N4534    N        0.75695    0.14984    0.47644    1.000
    N4535    N        0.77800    0.19522    0.42185    1.000
    N4536    N        0.77500    0.22034    0.48638    1.000
    Si4537   Si       0.76685    0.22888    0.44385    1.000
    Si4538   Si       0.80924    0.18155    0.39361    1.000
    N4539    N        0.79004    0.03035    0.54177    1.000
    Si4540   Si       0.78029    0.07274    0.54475    1.000
    N4541    N        0.78361    0.09441    0.50789    1.000
    N4542    N        0.77373    0.12826    0.60456    1.000
    Si4543   Si       0.80936    0.10391    0.60532    1.000
    Si4544   Si       0.79675    0.01208    0.50209    1.000
    Si4545   Si       0.78439    0.00769    0.57865    1.000
    Si4546   Si       0.76065    0.18108    0.50327    1.000
    N4547    N        0.79362    0.24427    0.55052    1.000
    N4548    N        0.78076    0.16910    0.54164    1.000
    Si4549   Si       0.79595    0.22211    0.58925    1.000
    N4550    N        0.76088    0.20036    0.60130    1.000
    Si4551   Si       0.76091    0.16017    0.57854    1.000
    Si4552   Si       0.76770    0.24858    0.51728    1.000
    N4553    N        0.78884    0.02083    0.73402    1.000
    Si4554   Si       0.78249    0.12266    0.70475    1.000
    N4555    N        0.76930    0.01618    0.66481    1.000
    Si4556   Si       0.80400    0.03924    0.65092    1.000
    N4557    N        0.79456    0.08020    0.63775    1.000
    Si4558   Si       0.75399    0.10798    0.64150    1.000
    N4559    N        0.75086    0.10057    0.68775    1.000
    Si4560   Si       0.79075    0.24628    0.65728    1.000
    N4561    N        0.78827    0.20448    0.66354    1.000
    N4562    N        0.80318    0.14122    0.67187    1.000
    N4563    N        0.77099    0.15676    0.72970    1.000
    Si4564   Si       0.75308    0.18486    0.64495    1.000
    Si4565   Si       0.77615    0.04210    0.76956    1.000
    N4566    N        0.79316    0.07780    0.78603    1.000
    Si4567   Si       0.77033    0.09478    0.81849    1.000
    N4568    N        0.76945    0.06903    0.85584    1.000
    N4569    N        0.79279    0.12448    0.84272    1.000
    N4570    N        0.77918    0.01432    0.80268    1.000
    N4571    N        0.78224    0.21290    0.77730    1.000
    Si4572   Si       0.79318    0.22352    0.81918    1.000
    Si4573   Si       0.80003    0.17850    0.75749    1.000
    Si4574   Si       0.76215    0.24905    0.75645    1.000
    N4575    N        0.81205    0.19293    0.84182    1.000
    N4576    N        0.75567    0.23595    0.83647    1.000
    Si4577   Si       0.79266    0.09943    0.87835    1.000
    Si4578   Si       0.79019    0.03623    0.95615    1.000
    N4579    N        0.76938    0.11751    0.91165    1.000
    N4580    N        0.76559    0.18896    0.89034    1.000
    N4581    N        0.80758    0.17838    0.93290    1.000
    Si4582   Si       0.80890    0.19448    0.88888    1.000
    Si4583   Si       0.76750    0.16036    0.92304    1.000
    Si4584   Si       0.77807    0.36923    0.03486    1.000
    Si4585   Si       0.79449    0.29738    0.01963    1.000
    N4586    N        0.76376    0.32982    0.02420    1.000
    N4587    N        0.78528    0.33585    0.11760    1.000
    N4588    N        0.77563    0.25906    0.01033    1.000
    Si4589   Si       0.77797    0.43374    0.01658    1.000
    Si4590   Si       0.77091    0.50273    0.00759    1.000
    N4591    N        0.77624    0.39212    0.99872    1.000
    N4592    N        0.79470    0.50760    0.04246    1.000
    N4593    N        0.75753    0.50181    0.10374    1.000
    Si4594   Si       0.78255    0.31644    0.15689    1.000
    Si4595   Si       0.77115    0.29984    0.22728    1.000
    N4596    N        0.79171    0.28449    0.18871    1.000
    Si4597   Si       0.78842    0.35794    0.21956    1.000
    N4598    N        0.80250    0.35138    0.17890    1.000
    N4599    N        0.80718    0.32277    0.24062    1.000
    Si4600   Si       0.75931    0.25859    0.16314    1.000
    N4601    N        0.81055    0.46475    0.19122    1.000
    N4602    N        0.77159    0.41101    0.16478    1.000
    N4603    N        0.78779    0.40122    0.22772    1.000
    Si4604   Si       0.79579    0.50464    0.18444    1.000
    Si4605   Si       0.80827    0.38839    0.15838    1.000
    Si4606   Si       0.77966    0.43346    0.20002    1.000
    N4607    N        0.77929    0.34397    0.31080    1.000
    N4608    N        0.79247    0.27527    0.32095    1.000
    Si4609   Si       0.76160    0.30588    0.32350    1.000
    N4610    N        0.76620    0.26429    0.25254    1.000
    N4611    N        0.75815    0.31241    0.36593    1.000
    Si4612   Si       0.75629    0.38086    0.31462    1.000
    Si4613   Si       0.75387    0.45046    0.30184    1.000
    N4614    N        0.76413    0.46341    0.26095    1.000
    N4615    N        0.76998    0.46862    0.33657    1.000
    N4616    N        0.77784    0.41415    0.30100    1.000
    Si4617   Si       0.80307    0.41234    0.26661    1.000
    Si4618   Si       0.80159    0.48230    0.25186    1.000
    Si4619   Si       0.81158    0.48892    0.33069    1.000
    N4620    N        0.79489    0.36077    0.40636    1.000
    Si4621   Si       0.75934    0.35143    0.38407    1.000
    Si4622   Si       0.79005    0.37519    0.44695    1.000
    N4623    N        0.75675    0.36502    0.47151    1.000
    N4624    N        0.77950    0.26369    0.41689    1.000
    Si4625   Si       0.79801    0.50939    0.49260    1.000
    Si4626   Si       0.75780    0.40754    0.48774    1.000
    Si4627   Si       0.75771    0.47172    0.37855    1.000
    N4628    N        0.78043    0.41881    0.45260    1.000
    N4629    N        0.79548    0.46411    0.39986    1.000
    Si4630   Si       0.78212    0.46081    0.44206    1.000
    N4631    N        0.81484    0.48456    0.45971    1.000
    N4632    N        0.78879    0.36555    0.57615    1.000
    Si4633   Si       0.76832    0.35520    0.61180    1.000
    N4634    N        0.77887    0.29203    0.50999    1.000
    Si4635   Si       0.81493    0.28265    0.53109    1.000
    N4636    N        0.78374    0.40421    0.52064    1.000
    N4637    N        0.77148    0.48545    0.51776    1.000
    Si4638   Si       0.77647    0.47882    0.56071    1.000
    Si4639   Si       0.76287    0.39740    0.55783    1.000
    N4640    N        0.76383    0.43810    0.57558    1.000
    N4641    N        0.78016    0.28813    0.74278    1.000
    N4642    N        0.77355    0.31913    0.63448    1.000
    N4643    N        0.78512    0.34359    0.69757    1.000
    Si4644   Si       0.80193    0.31520    0.66657    1.000
    Si4645   Si       0.79400    0.33091    0.73995    1.000
    Si4646   Si       0.77086    0.37771    0.67783    1.000
    N4647    N        0.81154    0.27363    0.68264    1.000
    Si4648   Si       0.76509    0.42676    0.62137    1.000
    N4649    N        0.78109    0.48078    0.70865    1.000
    N4650    N        0.77807    0.38914    0.63747    1.000
    N4651    N        0.79338    0.45486    0.63487    1.000
    N4652    N        0.76283    0.41293    0.70377    1.000
    Si4653   Si       0.80624    0.47503    0.67388    1.000
    Si4654   Si       0.77477    0.44372    0.73034    1.000
    N4655    N        0.77094    0.30161    0.82100    1.000
    N4656    N        0.79650    0.36870    0.76027    1.000
    N4657    N        0.77625    0.37426    0.82717    1.000
    Si4658   Si       0.75731    0.33866    0.83964    1.000
    N4659    N        0.77658    0.50075    0.79737    1.000
    Si4660   Si       0.79513    0.40977    0.84352    1.000
    N4661    N        0.76388    0.43414    0.82488    1.000
    Si4662   Si       0.79278    0.32064    0.90474    1.000
    N4663    N        0.77651    0.28456    0.92433    1.000
    N4664    N        0.80072    0.34897    0.93871    1.000
    N4665    N        0.75842    0.33688    0.88264    1.000
    Si4666   Si       0.75418    0.37682    0.89549    1.000
    N4667    N        0.80724    0.49243    0.93047    1.000
    N4668    N        0.79354    0.39445    0.88264    1.000
    N4669    N        0.80153    0.42204    0.94182    1.000
    Si4670   Si       0.78006    0.38466    0.95568    1.000
    Si4671   Si       0.79202    0.48697    0.88953    1.000
    N4672    N        0.78010    0.46526    0.98816    1.000
    Si4673   Si       0.80148    0.61909    0.03644    1.000
    N4674    N        0.80242    0.57934    0.01609    1.000
    Si4675   Si       0.76663    0.52690    0.06788    1.000
    N4676    N        0.80454    0.54493    0.08923    1.000
    N4677    N        0.76241    0.63219    0.04350    1.000
    N4678    N        0.75851    0.67623    0.11726    1.000
    N4679    N        0.81069    0.65103    0.00709    1.000
    N4680    N        0.79013    0.69663    0.05800    1.000
    Si4681   Si       0.79433    0.69316    0.10249    1.000
    Si4682   Si       0.78840    0.73967    0.06433    1.000
    N4683    N        0.79269    0.73654    0.10940    1.000
    Si4684   Si       0.76065    0.67640    0.03154    1.000
    N4685    N        0.77102    0.57498    0.13422    1.000
    Si4686   Si       0.78196    0.53206    0.12883    1.000
    Si4687   Si       0.78583    0.55798    0.23396    1.000
    N4688    N        0.79931    0.59195    0.20680    1.000
    Si4689   Si       0.78835    0.60072    0.16426    1.000
    N4690    N        0.79723    0.51794    0.22507    1.000
    N4691    N        0.75848    0.52176    0.16775    1.000
    Si4692   Si       0.76460    0.74097    0.14369    1.000
    N4693    N        0.77926    0.70949    0.17297    1.000
    N4694    N        0.75868    0.68065    0.22357    1.000
    Si4695   Si       0.77651    0.71954    0.21494    1.000
    N4696    N        0.76004    0.63408    0.16660    1.000
    Si4697   Si       0.77779    0.66734    0.18657    1.000
    N4698    N        0.78487    0.62601    0.31236    1.000
    N4699    N        0.75856    0.57522    0.35546    1.000
    N4700    N        0.80694    0.56579    0.26928    1.000
    Si4701   Si       0.75129    0.61244    0.33532    1.000
    N4702    N        0.80415    0.68239    0.35280    1.000
    N4703    N        0.76788    0.74857    0.33045    1.000
    Si4704   Si       0.79059    0.66840    0.31341    1.000
    N4705    N        0.75820    0.69044    0.29447    1.000
    N4706    N        0.78213    0.54839    0.48392    1.000
    N4707    N        0.79658    0.56100    0.41281    1.000
    Si4708   Si       0.76921    0.56616    0.44697    1.000
    Si4709   Si       0.78027    0.54414    0.37689    1.000
    N4710    N        0.77528    0.60957    0.45358    1.000
    Si4711   Si       0.81140    0.63224    0.44484    1.000
    Si4712   Si       0.77090    0.67168    0.38928    1.000
    Si4713   Si       0.78336    0.74376    0.37288    1.000
    N4714    N        0.76585    0.71419    0.39732    1.000
    N4715    N        0.80389    0.65284    0.40904    1.000
    Si4716   Si       0.77838    0.57673    0.58296    1.000
    N4717    N        0.78063    0.62042    0.58813    1.000
    Si4718   Si       0.79701    0.57754    0.51326    1.000
    N4719    N        0.76525    0.60619    0.52375    1.000
    N4720    N        0.80415    0.56022    0.55329    1.000
    N4721    N        0.80120    0.56717    0.62037    1.000
    Si4722   Si       0.76915    0.70409    0.57953    1.000
    N4723    N        0.78902    0.73441    0.55343    1.000
    Si4724   Si       0.76783    0.65032    0.52759    1.000
    N4725    N        0.80095    0.68244    0.60098    1.000
    N4726    N        0.80842    0.65652    0.53830    1.000
    N4727    N        0.75875    0.53538    0.67302    1.000
    N4728    N        0.78112    0.54565    0.73881    1.000
    Si4729   Si       0.75875    0.51839    0.71370    1.000
    Si4730   Si       0.79839    0.54845    0.65801    1.000
    Si4731   Si       0.76696    0.62644    0.62796    1.000
    N4732    N        0.80556    0.57977    0.68788    1.000
    N4733    N        0.80785    0.62946    0.64644    1.000
    Si4734   Si       0.76857    0.70129    0.64739    1.000
    Si4735   Si       0.75538    0.66889    0.72010    1.000
    N4736    N        0.79083    0.64769    0.71258    1.000
    N4737    N        0.80845    0.71978    0.65449    1.000
    Si4738   Si       0.77342    0.54263    0.78191    1.000
    N4739    N        0.79576    0.59558    0.86212    1.000
    N4740    N        0.80247    0.51953    0.86406    1.000
    N4741    N        0.80988    0.55515    0.80448    1.000
    N4742    N        0.80441    0.63437    0.80063    1.000
    Si4743   Si       0.78803    0.70532    0.85695    1.000
    Si4744   Si       0.76736    0.71408    0.77871    1.000
    N4745    N        0.76660    0.69723    0.82068    1.000
    N4746    N        0.80381    0.72436    0.75585    1.000
    Si4747   Si       0.76738    0.65696    0.80586    1.000
    N4748    N        0.76832    0.67083    0.76298    1.000
    N4749    N        0.80498    0.66551    0.86814    1.000
    N4750    N        0.81518    0.73674    0.84738    1.000
    Si4751   Si       0.75306    0.59355    0.92679    1.000
    N4752    N        0.77507    0.53462    0.97823    1.000
    Si4753   Si       0.80275    0.53226    0.94649    1.000
    Si4754   Si       0.80413    0.55686    0.88284    1.000
    N4755    N        0.76448    0.61018    0.96667    1.000
    N4756    N        0.78125    0.56111    0.91840    1.000
    Si4757   Si       0.76719    0.57481    0.99283    1.000
    N4758    N        0.75577    0.74662    0.93886    1.000
    Si4759   Si       0.78103    0.64962    0.97362    1.000
    N4760    N        0.75838    0.70166    0.88947    1.000
    Si4761   Si       0.77664    0.66397    0.90036    1.000
    N4762    N        0.79871    0.66315    0.93793    1.000
    N4763    N        0.77784    0.85994    0.09796    1.000
    N4764    N        0.76863    0.84082    0.03321    1.000
    Si4765   Si       0.80633    0.85799    0.02077    1.000
    N4766    N        0.78636    0.94247    0.07964    1.000
    Si4767   Si       0.77223    0.97307    0.04800    1.000
    N4768    N        0.80521    0.95937    0.02376    1.000
    Si4769   Si       0.78551    0.96499    0.11816    1.000
    Si4770   Si       0.79176    0.85277    0.20249    1.000
    N4771    N        0.77318    0.77790    0.16675    1.000
    N4772    N        0.80725    0.84749    0.24136    1.000
    Si4773   Si       0.81321    0.78607    0.18049    1.000
    N4774    N        0.78746    0.98442    0.22418    1.000
    N4775    N        0.78786    0.95160    0.15934    1.000
    Si4776   Si       0.80888    0.97786    0.18541    1.000
    Si4777   Si       0.76364    0.91822    0.17232    1.000
    N4778    N        0.79418    0.89356    0.19060    1.000
    N4779    N        0.78351    0.79524    0.27677    1.000
    Si4780   Si       0.79684    0.77682    0.31459    1.000
    N4781    N        0.76351    0.84495    0.35627    1.000
    Si4782   Si       0.79598    0.81863    0.37049    1.000
    Si4783   Si       0.78453    0.87964    0.34258    1.000
    Si4784   Si       0.81113    0.88051    0.26893    1.000
    N4785    N        0.77831    0.88205    0.29824    1.000
    N4786    N        0.79471    0.97964    0.34259    1.000
    N4787    N        0.76140    0.91598    0.35483    1.000
    Si4788   Si       0.78684    0.94642    0.36998    1.000
    Si4789   Si       0.80660    0.00573    0.25822    1.000
    Si4790   Si       0.76506    0.81116    0.48682    1.000
    N4791    N        0.76660    0.85330    0.48437    1.000
    N4792    N        0.78494    0.79063    0.45413    1.000
    Si4793   Si       0.76242    0.86936    0.44436    1.000
    N4794    N        0.77531    0.78379    0.38734    1.000
    Si4795   Si       0.75342    0.79174    0.42579    1.000
    Si4796   Si       0.81180    0.92977    0.42181    1.000
    N4797    N        0.78077    0.95825    0.40994    1.000
    N4798    N        0.79627    0.88775    0.42532    1.000
    N4799    N        0.78129    0.79680    0.52460    1.000
    N4800    N        0.76161    0.85887    0.55238    1.000
    Si4801   Si       0.79906    0.87801    0.55926    1.000
    N4802    N        0.75952    0.84042    0.61735    1.000
    N4803    N        0.81142    0.81431    0.59231    1.000
    Si4804   Si       0.75759    0.76428    0.54012    1.000
    Si4805   Si       0.78059    0.93962    0.53121    1.000
    Si4806   Si       0.79596    0.94003    0.60093    1.000
    N4807    N        0.78327    0.96546    0.56724    1.000
    N4808    N        0.78558    0.89874    0.59796    1.000
    N4809    N        0.79606    0.96854    0.50272    1.000
    N4810    N        0.79663    0.87463    0.72423    1.000
    N4811    N        0.80491    0.84586    0.66038    1.000
    N4812    N        0.76323    0.78255    0.64591    1.000
    Si4813   Si       0.79194    0.81452    0.63327    1.000
    Si4814   Si       0.77641    0.86080    0.69001    1.000
    N4815    N        0.78703    0.76703    0.70436    1.000
    Si4816   Si       0.77897    0.93211    0.67178    1.000
    Si4817   Si       0.76216    0.00144    0.70443    1.000
    N4818    N        0.76953    0.95792    0.70483    1.000
    Si4819   Si       0.75225    0.88277    0.62297    1.000
    N4820    N        0.75600    0.89337    0.66776    1.000
    N4821    N        0.77096    0.95580    0.63482    1.000
    N4822    N        0.77247    0.83875    0.78162    1.000
    Si4823   Si       0.79098    0.76981    0.83090    1.000
    N4824    N        0.76335    0.78652    0.86275    1.000
    Si4825   Si       0.81349    0.82303    0.78415    1.000
    N4826    N        0.77204    0.75826    0.79474    1.000
    Si4827   Si       0.78565    0.76492    0.74842    1.000
    Si4828   Si       0.80100    0.98586    0.82560    1.000
    Si4829   Si       0.77023    0.92319    0.83407    1.000
    N4830    N        0.76373    0.96813    0.84156    1.000
    N4831    N        0.81070    0.91662    0.84579    1.000
    N4832    N        0.78797    0.85385    0.87348    1.000
    N4833    N        0.75884    0.78679    0.99308    1.000
    N4834    N        0.77064    0.81170    0.92659    1.000
    Si4835   Si       0.78985    0.81293    0.88840    1.000
    Si4836   Si       0.77796    0.77831    0.95664    1.000
    N4837    N        0.79737    0.87715    0.98298    1.000
    N4838    N        0.75366    0.93311    0.96772    1.000
    Si4839   Si       0.75729    0.89331    0.98697    1.000
    N4840    N        0.80369    0.89411    0.91926    1.000
    N4841    N        0.78315    0.95954    0.90779    1.000
    Si4842   Si       0.78817    0.93118    0.93945    1.000
    Si4843   Si       0.79201    0.00170    0.89383    1.000
    N4844    N        0.78121    0.99893    0.97649    1.000
    Si4845   Si       0.84154    0.10984    0.06273    1.000
    N4846    N        0.85142    0.01960    0.06936    1.000
    N4847    N        0.82858    0.13251    0.09762    1.000
    Si4848   Si       0.81245    0.04029    0.06904    1.000
    N4849    N        0.81241    0.07943    0.04969    1.000
    N4850    N        0.83730    0.13547    0.02807    1.000
    N4851    N        0.84418    0.24070    0.02052    1.000
    Si4852   Si       0.85225    0.22395    0.06137    1.000
    Si4853   Si       0.84925    0.16853    0.11653    1.000
    N4854    N        0.86816    0.18767    0.07902    1.000
    Si4855   Si       0.81837    0.12221    0.22069    1.000
    Si4856   Si       0.82367    0.02594    0.13548    1.000
    N4857    N        0.86435    0.03889    0.13919    1.000
    N4858    N        0.84827    0.12527    0.19228    1.000
    N4859    N        0.86656    0.20255    0.14604    1.000
    N4860    N        0.82803    0.25392    0.12597    1.000
    Si4861   Si       0.84132    0.23328    0.16132    1.000
    N4862    N        0.81436    0.22415    0.19440    1.000
    Si4863   Si       0.84006    0.08022    0.34615    1.000
    Si4864   Si       0.84195    0.07432    0.27300    1.000
    N4865    N        0.85133    0.12219    0.35719    1.000
    N4866    N        0.84020    0.03330    0.25892    1.000
    N4867    N        0.86208    0.06708    0.31163    1.000
    Si4868   Si       0.81988    0.13763    0.33067    1.000
    N4869    N        0.83775    0.15702    0.29598    1.000
    Si4870   Si       0.85149    0.23727    0.28010    1.000
    Si4871   Si       0.86402    0.22157    0.35432    1.000
    N4872    N        0.85587    0.25005    0.32292    1.000
    N4873    N        0.81003    0.21716    0.28348    1.000
    N4874    N        0.81705    0.07271    0.44806    1.000
    Si4875   Si       0.82213    0.09844    0.48434    1.000
    N4876    N        0.85022    0.05513    0.37988    1.000
    Si4877   Si       0.85215    0.06730    0.42152    1.000
    Si4878   Si       0.86737    0.03934    0.48789    1.000
    N4879    N        0.83620    0.01091    0.48460    1.000
    N4880    N        0.82515    0.22265    0.37494    1.000
    Si4881   Si       0.86983    0.21029    0.42302    1.000
    N4882    N        0.85299    0.17247    0.40638    1.000
    N4883    N        0.84293    0.13364    0.47333    1.000
    Si4884   Si       0.84165    0.13808    0.43095    1.000
    N4885    N        0.84166    0.23939    0.43788    1.000
    Si4886   Si       0.85265    0.09162    0.54830    1.000
    N4887    N        0.85145    0.07425    0.50891    1.000
    N4888    N        0.84396    0.13071    0.61139    1.000
    N4889    N        0.81625    0.08342    0.56911    1.000
    N4890    N        0.81408    0.01461    0.61200    1.000
    N4891    N        0.84686    0.13530    0.54132    1.000
    Si4892   Si       0.82245    0.17151    0.54615    1.000
    N4893    N        0.84740    0.19239    0.51531    1.000
    N4894    N        0.82878    0.19376    0.58424    1.000
    Si4895   Si       0.86331    0.23117    0.52714    1.000
    Si4896   Si       0.86593    0.15416    0.50415    1.000
    N4897    N        0.86832    0.24625    0.56919    1.000
    Si4898   Si       0.86926    0.20628    0.59502    1.000
    N4899    N        0.80967    0.25515    0.61737    1.000
    N4900    N        0.81832    0.10312    0.72346    1.000
    Si4901   Si       0.85120    0.08231    0.70243    1.000
    N4902    N        0.83380    0.04430    0.68562    1.000
    Si4903   Si       0.83090    0.01705    0.71945    1.000
    N4904    N        0.86961    0.10265    0.66814    1.000
    Si4905   Si       0.84427    0.13533    0.65364    1.000
    N4906    N        0.85738    0.17400    0.66889    1.000
    Si4907   Si       0.85969    0.22000    0.73276    1.000
    Si4908   Si       0.81620    0.18072    0.68529    1.000
    N4909    N        0.82520    0.19590    0.72464    1.000
    N4910    N        0.86018    0.09436    0.78472    1.000
    N4911    N        0.85246    0.03059    0.75640    1.000
    Si4912   Si       0.82069    0.10455    0.76782    1.000
    N4913    N        0.85868    0.14181    0.83927    1.000
    Si4914   Si       0.84885    0.24055    0.85982    1.000
    Si4915   Si       0.81862    0.15266    0.82483    1.000
    N4916    N        0.82763    0.25281    0.82196    1.000
    N4917    N        0.84185    0.25475    0.75281    1.000
    N4918    N        0.81759    0.14775    0.78242    1.000
    Si4919   Si       0.86480    0.11064    0.87303    1.000
    N4920    N        0.83320    0.08502    0.88443    1.000
    Si4921   Si       0.85502    0.04943    0.98050    1.000
    Si4922   Si       0.84889    0.05002    0.90873    1.000
    N4923    N        0.85175    0.00481    0.98487    1.000
    N4924    N        0.81350    0.02786    0.92068    1.000
    N4925    N        0.81507    0.06246    0.98119    1.000
    N4926    N        0.81714    0.23846    0.89067    1.000
    N4927    N        0.85364    0.18587    0.89222    1.000
    Si4928   Si       0.82164    0.19749    0.96894    1.000
    N4929    N        0.82682    0.24007    0.95819    1.000
    Si4930   Si       0.86533    0.16562    0.92877    1.000
    N4931    N        0.85655    0.17129    0.96958    1.000
    N4932    N        0.84853    0.32370    0.10171    1.000
    Si4933   Si       0.85786    0.28129    0.10712    1.000
    N4934    N        0.81489    0.36857    0.05631    1.000
    Si4935   Si       0.81140    0.33172    0.08337    1.000
    N4936    N        0.80807    0.29685    0.05939    1.000
    Si4937   Si       0.85604    0.43862    0.01665    1.000
    Si4938   Si       0.82716    0.40549    0.07531    1.000
    N4939    N        0.85020    0.49397    0.09277    1.000
    N4940    N        0.81903    0.39800    0.11698    1.000
    N4941    N        0.81469    0.43218    0.04043    1.000
    N4942    N        0.86782    0.41932    0.08470    1.000
    N4943    N        0.87538    0.40171    0.01931    1.000
    N4944    N        0.86230    0.26566    0.18386    1.000
    Si4945   Si       0.82735    0.26385    0.21064    1.000
    Si4946   Si       0.86275    0.41124    0.13257    1.000
    Si4947   Si       0.85185    0.45144    0.18243    1.000
    N4948    N        0.84300    0.40757    0.17451    1.000
    N4949    N        0.84312    0.31726    0.30569    1.000
    Si4950   Si       0.83403    0.28573    0.33409    1.000
    Si4951   Si       0.84230    0.31034    0.26243    1.000
    Si4952   Si       0.82272    0.35490    0.31117    1.000
    N4953    N        0.84351    0.37267    0.34647    1.000
    N4954    N        0.84133    0.26677    0.25104    1.000
    N4955    N        0.83116    0.37949    0.27738    1.000
    N4956    N        0.84553    0.46489    0.34319    1.000
    N4957    N        0.82699    0.44654    0.25747    1.000
    Si4958   Si       0.86929    0.44829    0.24976    1.000
    N4959    N        0.81266    0.50059    0.28963    1.000
    N4960    N        0.84017    0.28911    0.37691    1.000
    N4961    N        0.84027    0.30478    0.45105    1.000
    Si4962   Si       0.85403    0.26887    0.46855    1.000
    Si4963   Si       0.85789    0.34455    0.45262    1.000
    N4964    N        0.82897    0.37164    0.46904    1.000
    N4965    N        0.86329    0.35522    0.40953    1.000
    Si4966   Si       0.83058    0.37739    0.38861    1.000
    Si4967   Si       0.82131    0.25769    0.40292    1.000
    Si4968   Si       0.83792    0.45771    0.38635    1.000
    Si4969   Si       0.85366    0.49451    0.44478    1.000
    N4970    N        0.86385    0.48448    0.40419    1.000
    N4971    N        0.84644    0.41602    0.40062    1.000
    N4972    N        0.82605    0.30502    0.56587    1.000
    Si4973   Si       0.82902    0.34919    0.56825    1.000
    Si4974   Si       0.84270    0.27423    0.59362    1.000
    N4975    N        0.84565    0.36824    0.53320    1.000
    N4976    N        0.86101    0.35835    0.59866    1.000
    N4977    N        0.84235    0.26426    0.50810    1.000
    N4978    N        0.85817    0.42405    0.51220    1.000
    Si4979   Si       0.82586    0.39563    0.50535    1.000
    Si4980   Si       0.82450    0.48111    0.61734    1.000
    N4981    N        0.86455    0.46781    0.61610    1.000
    N4982    N        0.81213    0.49091    0.57720    1.000
    N4983    N        0.84044    0.33168    0.65725    1.000
    N4984    N        0.83575    0.32068    0.73001    1.000
    Si4985   Si       0.85975    0.33134    0.69633    1.000
    Si4986   Si       0.82054    0.27872    0.72573    1.000
    Si4987   Si       0.85085    0.45230    0.72449    1.000
    N4988    N        0.84278    0.45530    0.68086    1.000
    N4989    N        0.86597    0.48862    0.74264    1.000
    N4990    N        0.84370    0.30851    0.79932    1.000
    Si4991   Si       0.85746    0.33493    0.76753    1.000
    Si4992   Si       0.85528    0.26748    0.79049    1.000
    N4993    N        0.81870    0.31129    0.86830    1.000
    N4994    N        0.85973    0.37898    0.76907    1.000
    Si4995   Si       0.81407    0.29653    0.82769    1.000
    Si4996   Si       0.84613    0.45079    0.83754    1.000
    N4997    N        0.84614    0.49030    0.81446    1.000
    N4998    N        0.82839    0.41523    0.81756    1.000
    Si4999   Si       0.82221    0.40061    0.77540    1.000
    N5000    N        0.81724    0.43334    0.74392    1.000
    Si5001   Si       0.84892    0.26684    0.98627    1.000
    Si5002   Si       0.83966    0.33175    0.95670    1.000
    Si5003   Si       0.86003    0.30910    0.88678    1.000
    N5004    N        0.84049    0.30007    0.92539    1.000
    N5005    N        0.86965    0.36474    0.95841    1.000
    Si5006   Si       0.81576    0.26399    0.92425    1.000
    N5007    N        0.82695    0.30481    0.99056    1.000
    N5008    N        0.86189    0.40919    0.91028    1.000
    N5009    N        0.81834    0.45244    0.87175    1.000
    N5010    N        0.85361    0.45521    0.97592    1.000
    Si5011   Si       0.82051    0.42204    0.90239    1.000
    Si5012   Si       0.81279    0.45998    0.96057    1.000
    N5013    N        0.83118    0.61209    0.06633    1.000
    N5014    N        0.85680    0.53238    0.03007    1.000
    Si5015   Si       0.82610    0.58393    0.10044    1.000
    Si5016   Si       0.84131    0.56395    0.00467    1.000
    Si5017   Si       0.83112    0.51884    0.06357    1.000
    N5018    N        0.86130    0.56113    0.10807    1.000
    N5019    N        0.87162    0.59506    0.01329    1.000
    Si5020   Si       0.87169    0.61648    0.04975    1.000
    Si5021   Si       0.85166    0.74228    0.02520    1.000
    Si5022   Si       0.84799    0.67197    0.00095    1.000
    N5023    N        0.87381    0.65758    0.03371    1.000
    Si5024   Si       0.85472    0.52230    0.12790    1.000
    Si5025   Si       0.83062    0.61862    0.22081    1.000
    N5026    N        0.82110    0.61332    0.13795    1.000
    N5027    N        0.81848    0.52221    0.15019    1.000
    N5028    N        0.87129    0.60303    0.21343    1.000
    Si5029   Si       0.84405    0.72114    0.14464    1.000
    N5030    N        0.82350    0.65556    0.19472    1.000
    N5031    N        0.86731    0.70634    0.18061    1.000
    N5032    N        0.82744    0.68317    0.12818    1.000
    Si5033   Si       0.84637    0.68757    0.21569    1.000
    Si5034   Si       0.83874    0.64879    0.15257    1.000
    N5035    N        0.81727    0.71551    0.22856    1.000
    N5036    N        0.84419    0.58160    0.31912    1.000
    Si5037   Si       0.84912    0.54830    0.34658    1.000
    Si5038   Si       0.83837    0.53453    0.28272    1.000
    N5039    N        0.83433    0.62765    0.26366    1.000
    N5040    N        0.86497    0.52199    0.31512    1.000
    Si5041   Si       0.81527    0.60133    0.29183    1.000
    N5042    N        0.86196    0.53581    0.24767    1.000
    N5043    N        0.81162    0.52620    0.35422    1.000
    Si5044   Si       0.83378    0.74836    0.25089    1.000
    N5045    N        0.82784    0.68631    0.29529    1.000
    Si5046   Si       0.83172    0.71335    0.33098    1.000
    Si5047   Si       0.86027    0.65985    0.27944    1.000
    N5048    N        0.82738    0.74058    0.36582    1.000
    N5049    N        0.83016    0.75349    0.29598    1.000
    N5050    N        0.84644    0.60640    0.43600    1.000
    N5051    N        0.85173    0.53771    0.45177    1.000
    Si5052   Si       0.83915    0.56589    0.42152    1.000
    N5053    N        0.86321    0.55747    0.38616    1.000
    Si5054   Si       0.86315    0.61884    0.47956    1.000
    Si5055   Si       0.85876    0.55010    0.49276    1.000
    N5056    N        0.86633    0.64440    0.37817    1.000
    N5057    N        0.85113    0.70083    0.41428    1.000
    Si5058   Si       0.85493    0.74168    0.39821    1.000
    Si5059   Si       0.86462    0.68599    0.45226    1.000
    N5060    N        0.83513    0.65856    0.47245    1.000
    Si5061   Si       0.83348    0.67232    0.38510    1.000
    Si5062   Si       0.83211    0.52703    0.55789    1.000
    N5063    N        0.83538    0.52006    0.51533    1.000
    N5064    N        0.84826    0.62570    0.59318    1.000
    N5065    N        0.86787    0.53818    0.57697    1.000
    N5066    N        0.83753    0.58883    0.49836    1.000
    N5067    N        0.84903    0.71077    0.52330    1.000
    N5068    N        0.84176    0.73460    0.58932    1.000
    Si5069   Si       0.84209    0.66861    0.51580    1.000
    Si5070   Si       0.83061    0.73912    0.54727    1.000
    Si5071   Si       0.83118    0.70616    0.62019    1.000
    Si5072   Si       0.81354    0.64812    0.57992    1.000
    Si5073   Si       0.83134    0.59899    0.62322    1.000
    N5074    N        0.86421    0.57527    0.64349    1.000
    N5075    N        0.85916    0.55643    0.71680    1.000
    N5076    N        0.81888    0.51034    0.65064    1.000
    Si5077   Si       0.81842    0.56838    0.72852    1.000
    N5078    N        0.85582    0.62282    0.69489    1.000
    Si5079   Si       0.81370    0.62149    0.68741    1.000
    N5080    N        0.85289    0.60582    0.83444    1.000
    Si5081   Si       0.82356    0.59529    0.80205    1.000
    Si5082   Si       0.82626    0.62754    0.86255    1.000
    N5083    N        0.82644    0.59992    0.75558    1.000
    Si5084   Si       0.81074    0.51487    0.82203    1.000
    N5085    N        0.85860    0.70683    0.80479    1.000
    Si5086   Si       0.84605    0.71037    0.76518    1.000
    Si5087   Si       0.85832    0.73120    0.84120    1.000
    N5088    N        0.84319    0.66861    0.74994    1.000
    Si5089   Si       0.80897    0.64182    0.75440    1.000
    N5090    N        0.84628    0.55343    0.89646    1.000
    N5091    N        0.83875    0.55152    0.96168    1.000
    N5092    N        0.85509    0.63559    0.89774    1.000
    N5093    N        0.84878    0.71269    0.99324    1.000
    Si5094   Si       0.84789    0.73457    0.95220    1.000
    N5095    N        0.85213    0.70296    0.92122    1.000
    N5096    N        0.86399    0.65194    0.96415    1.000
    Si5097   Si       0.83998    0.66288    0.92708    1.000
    N5098    N        0.84356    0.82823    0.07449    1.000
    N5099    N        0.83210    0.82798    0.00812    1.000
    Si5100   Si       0.84098    0.80118    0.04069    1.000
    Si5101   Si       0.81967    0.86198    0.08813    1.000
    N5102    N        0.81997    0.76309    0.04582    1.000
    N5103    N        0.86915    0.78012    0.01210    1.000
    N5104    N        0.84558    0.86939    0.12177    1.000
    Si5105   Si       0.85907    0.97887    0.08940    1.000
    N5106    N        0.85930    0.94378    0.06327    1.000
    Si5107   Si       0.81916    0.93041    0.05489    1.000
    N5108    N        0.81638    0.88642    0.05108    1.000
    N5109    N        0.82525    0.98677    0.11622    1.000
    Si5110   Si       0.85103    0.85232    0.16224    1.000
    N5111    N        0.81755    0.77955    0.22375    1.000
    N5112    N        0.81640    0.82863    0.17774    1.000
    N5113    N        0.84075    0.76182    0.15768    1.000
    Si5114   Si       0.83058    0.91411    0.20333    1.000
    N5115    N        0.85940    0.88400    0.19077    1.000
    N5116    N        0.84349    0.95550    0.19494    1.000
    N5117    N        0.82202    0.91554    0.24703    1.000
    Si5118   Si       0.84720    0.84557    0.33149    1.000
    N5119    N        0.84469    0.86263    0.29163    1.000
    N5120    N        0.86240    0.80364    0.26887    1.000
    N5121    N        0.82495    0.87088    0.35856    1.000
    Si5122   Si       0.86282    0.78500    0.31084    1.000
    Si5123   Si       0.82123    0.81042    0.25604    1.000
    N5124    N        0.81949    0.80894    0.33604    1.000
    N5125    N        0.84417    0.92895    0.31625    1.000
    Si5126   Si       0.83210    0.97140    0.32198    1.000
    N5127    N        0.82645    0.97474    0.27973    1.000
    Si5128   Si       0.85635    0.91073    0.35250    1.000
    Si5129   Si       0.84957    0.93930    0.26906    1.000
    N5130    N        0.86537    0.99001    0.34090    1.000
    N5131    N        0.81966    0.82773    0.40589    1.000
    N5132    N        0.85024    0.76673    0.43199    1.000
    Si5133   Si       0.82463    0.80084    0.44144    1.000
    N5134    N        0.84530    0.82148    0.47445    1.000
    Si5135   Si       0.82885    0.86845    0.40328    1.000
    N5136    N        0.82746    0.92999    0.38107    1.000
    N5137    N        0.86626    0.88477    0.41513    1.000
    Si5138   Si       0.83695    0.96619    0.48500    1.000
    N5139    N        0.86762    0.88796    0.49264    1.000
    N5140    N        0.84114    0.93865    0.45090    1.000
    Si5141   Si       0.84108    0.77938    0.59667    1.000
    N5142    N        0.84070    0.78090    0.55037    1.000
    Si5143   Si       0.85892    0.84837    0.50640    1.000
    N5144    N        0.82579    0.85038    0.53595    1.000
    Si5145   Si       0.81215    0.81262    0.54735    1.000
    Si5146   Si       0.85026    0.98965    0.60549    1.000
    Si5147   Si       0.85811    0.91390    0.52818    1.000
    N5148    N        0.83830    0.94780    0.60690    1.000
    N5149    N        0.85992    0.99987    0.56573    1.000
    N5150    N        0.86643    0.95416    0.51384    1.000
    N5151    N        0.81418    0.91337    0.53805    1.000
    N5152    N        0.85561    0.76420    0.69387    1.000
    Si5153   Si       0.85678    0.77742    0.73500    1.000
    N5154    N        0.85940    0.86174    0.70338    1.000
    N5155    N        0.83151    0.78155    0.64174    1.000
    Si5156   Si       0.83751    0.87494    0.66476    1.000
    Si5157   Si       0.83657    0.87909    0.73607    1.000
    N5158    N        0.86562    0.88127    0.63320    1.000
    Si5159   Si       0.81587    0.75655    0.67517    1.000
    N5160    N        0.85405    0.91908    0.73722    1.000
    N5161    N        0.84715    0.98116    0.70062    1.000
    N5162    N        0.82123    0.91522    0.67211    1.000
    Si5163   Si       0.85172    0.93717    0.69782    1.000
    N5164    N        0.84075    0.85398    0.77174    1.000
    Si5165   Si       0.85251    0.80304    0.84524    1.000
    N5166    N        0.82163    0.79022    0.75388    1.000
    N5167    N        0.81657    0.80353    0.82012    1.000
    N5168    N        0.86494    0.84368    0.83814    1.000
    Si5169   Si       0.87165    0.86324    0.79922    1.000
    Si5170   Si       0.86017    0.99989    0.78697    1.000
    N5171    N        0.83252    0.96824    0.80128    1.000
    Si5172   Si       0.84495    0.93433    0.82802    1.000
    Si5173   Si       0.86195    0.99849    0.85804    1.000
    N5174    N        0.81849    0.00208    0.85946    1.000
    N5175    N        0.86761    0.95525    0.85820    1.000
    N5176    N        0.86552    0.90588    0.80355    1.000
    Si5177   Si       0.82539    0.87011    0.95069    1.000
    Si5178   Si       0.84876    0.79985    0.97644    1.000
    Si5179   Si       0.86289    0.80316    0.91553    1.000
    N5180    N        0.84094    0.82986    0.94285    1.000
    N5181    N        0.83137    0.79837    0.88383    1.000
    N5182    N        0.81998    0.76622    0.96117    1.000
    N5183    N        0.86254    0.89282    0.88299    1.000
    Si5184   Si       0.81889    0.97948    0.98878    1.000
    N5185    N        0.82071    0.94423    0.96298    1.000
    Si5186   Si       0.81663    0.88758    0.87794    1.000
    N5187    N        0.86260    0.88840    0.96482    1.000
    Si5188   Si       0.86286    0.93067    0.96363    1.000
    N5189    N        0.90712    0.05177    0.08070    1.000
    N5190    N        0.88379    0.11606    0.06833    1.000
    Si5191   Si       0.88689    0.03341    0.04871    1.000
    Si5192   Si       0.91680    0.08339    0.00684    1.000
    N5193    N        0.88171    0.05856    0.01383    1.000
    Si5194   Si       0.91955    0.09227    0.07775    1.000
    Si5195   Si       0.89894    0.02588    0.11693    1.000
    Si5196   Si       0.89675    0.15789    0.06618    1.000
    N5197    N        0.89958    0.16927    0.02306    1.000
    Si5198   Si       0.87155    0.14502    0.00097    1.000
    N5199    N        0.87848    0.25578    0.07763    1.000
    N5200    N        0.92654    0.03455    0.15102    1.000
    Si5201   Si       0.88934    0.04943    0.17374    1.000
    N5202    N        0.90153    0.09059    0.17087    1.000
    N5203    N        0.87906    0.02431    0.20693    1.000
    Si5204   Si       0.88485    0.13191    0.17153    1.000
    N5205    N        0.88732    0.14829    0.13324    1.000
    Si5206   Si       0.90413    0.18505    0.15059    1.000
    N5207    N        0.91069    0.16242    0.18884    1.000
    Si5208   Si       0.90491    0.05635    0.30507    1.000
    N5209    N        0.91463    0.02238    0.27739    1.000
    N5210    N        0.91538    0.04170    0.34428    1.000
    Si5211   Si       0.91580    0.11315    0.26474    1.000
    Si5212   Si       0.87775    0.02706    0.36321    1.000
    N5213    N        0.87734    0.09455    0.25608    1.000
    Si5214   Si       0.88008    0.01596    0.24987    1.000
    N5215    N        0.91002    0.15416    0.28022    1.000
    N5216    N        0.88497    0.21070    0.27588    1.000
    Si5217   Si       0.87672    0.17450    0.29989    1.000
    N5218    N        0.87844    0.18291    0.34274    1.000
    N5219    N        0.86972    0.10617    0.42363    1.000
    Si5220   Si       0.91194    0.02617    0.42803    1.000
    Si5221   Si       0.91299    0.10509    0.41777    1.000
    N5222    N        0.87965    0.04468    0.44781    1.000
    N5223    N        0.92810    0.06407    0.40585    1.000
    Si5224   Si       0.91917    0.23028    0.47793    1.000
    Si5225   Si       0.87692    0.15151    0.37344    1.000
    N5226    N        0.88807    0.23167    0.38932    1.000
    N5227    N        0.91493    0.13567    0.38615    1.000
    N5228    N        0.89881    0.20013    0.45444    1.000
    N5229    N        0.88934    0.09490    0.57340    1.000
    N5230    N        0.89408    0.01972    0.51319    1.000
    Si5231   Si       0.92651    0.07892    0.58627    1.000
    Si5232   Si       0.88118    0.13719    0.59011    1.000
    N5233    N        0.92759    0.08387    0.50862    1.000
    N5234    N        0.90961    0.15548    0.51029    1.000
    N5235    N        0.89256    0.17634    0.57214    1.000
    N5236    N        0.90581    0.22573    0.52066    1.000
    Si5237   Si       0.91846    0.18588    0.53855    1.000
    Si5238   Si       0.91066    0.25896    0.55322    1.000
    Si5239   Si       0.90590    0.25683    0.62171    1.000
    N5240    N        0.93139    0.24538    0.58813    1.000
    N5241    N        0.92058    0.06661    0.62875    1.000
    Si5242   Si       0.92111    0.02444    0.64023    1.000
    Si5243   Si       0.90977    0.10217    0.65082    1.000
    N5244    N        0.88961    0.08207    0.72499    1.000
    N5245    N        0.91306    0.01623    0.68328    1.000
    Si5246   Si       0.92569    0.10761    0.72331    1.000
    N5247    N        0.90997    0.13434    0.62363    1.000
    N5248    N        0.92024    0.15032    0.73495    1.000
    N5249    N        0.88402    0.23187    0.69898    1.000
    N5250    N        0.88599    0.21887    0.63111    1.000
    Si5251   Si       0.89058    0.20058    0.67011    1.000
    N5252    N        0.91647    0.06065    0.78662    1.000
    Si5253   Si       0.90276    0.05126    0.82705    1.000
    N5254    N        0.89320    0.08841    0.84430    1.000
    Si5255   Si       0.88466    0.11613    0.81386    1.000
    Si5256   Si       0.88069    0.06483    0.76268    1.000
    N5257    N        0.87238    0.01962    0.82247    1.000
    N5258    N        0.91673    0.14339    0.80355    1.000
    Si5259   Si       0.91503    0.23302    0.82280    1.000
    N5260    N        0.89182    0.20587    0.76007    1.000
    N5261    N        0.88155    0.21565    0.84378    1.000
    Si5262   Si       0.88010    0.17634    0.86071    1.000
    Si5263   Si       0.91842    0.17444    0.77278    1.000
    Si5264   Si       0.92388    0.23827    0.75929    1.000
    N5265    N        0.92113    0.16382    0.86647    1.000
    N5266    N        0.87171    0.06580    0.94342    1.000
    N5267    N        0.87939    0.12778    0.90957    1.000
    N5268    N        0.87747    0.02309    0.88972    1.000
    Si5269   Si       0.91952    0.02745    0.88979    1.000
    Si5270   Si       0.89960    0.09978    0.93956    1.000
    N5271    N        0.89903    0.11361    0.98138    1.000
    N5272    N        0.90696    0.18804    0.92923    1.000
    N5273    N        0.89962    0.35098    0.06813    1.000
    Si5274   Si       0.89290    0.33768    0.10902    1.000
    N5275    N        0.92192    0.35287    0.00414    1.000
    N5276    N        0.92648    0.28616    0.03067    1.000
    Si5277   Si       0.92186    0.25996    0.06518    1.000
    Si5278   Si       0.92473    0.32832    0.03994    1.000
    Si5279   Si       0.87839    0.46321    0.08084    1.000
    Si5280   Si       0.89150    0.39220    0.05850    1.000
    N5281    N        0.91386    0.48026    0.09740    1.000
    N5282    N        0.88063    0.46695    0.03727    1.000
    Si5283   Si       0.88923    0.50555    0.01943    1.000
    N5284    N        0.88546    0.37507    0.13653    1.000
    Si5285   Si       0.92053    0.36246    0.16004    1.000
    Si5286   Si       0.89641    0.29001    0.17080    1.000
    N5287    N        0.90631    0.33032    0.18579    1.000
    Si5288   Si       0.91107    0.32799    0.22961    1.000
    N5289    N        0.89076    0.29564    0.12898    1.000
    Si5290   Si       0.92839    0.40125    0.22435    1.000
    N5291    N        0.87436    0.45211    0.14521    1.000
    Si5292   Si       0.90942    0.47652    0.14073    1.000
    N5293    N        0.87429    0.47290    0.21302    1.000
    N5294    N        0.88744    0.40826    0.23855    1.000
    N5295    N        0.89606    0.33329    0.35491    1.000
    Si5296   Si       0.88847    0.37449    0.34432    1.000
    N5297    N        0.89804    0.37660    0.30063    1.000
    N5298    N        0.87538    0.33713    0.24909    1.000
    Si5299   Si       0.87183    0.37729    0.26397    1.000
    N5300    N        0.89330    0.46306    0.28318    1.000
    N5301    N        0.91595    0.48416    0.34819    1.000
    Si5302   Si       0.88151    0.48159    0.32001    1.000
    N5303    N        0.89829    0.33653    0.46541    1.000
    N5304    N        0.90443    0.29640    0.40908    1.000
    Si5305   Si       0.91543    0.29998    0.45135    1.000
    Si5306   Si       0.91882    0.37061    0.47798    1.000
    N5307    N        0.89605    0.26514    0.46781    1.000
    Si5308   Si       0.91987    0.26087    0.38728    1.000
    Si5309   Si       0.87190    0.31663    0.38805    1.000
    Si5310   Si       0.91274    0.44395    0.45529    1.000
    Si5311   Si       0.90510    0.48411    0.38965    1.000
    N5312    N        0.92191    0.45089    0.41300    1.000
    N5313    N        0.88253    0.47356    0.46644    1.000
    N5314    N        0.90898    0.39775    0.37443    1.000
    N5315    N        0.90201    0.40193    0.44966    1.000
    Si5316   Si       0.88396    0.39536    0.41096    1.000
    N5317    N        0.87718    0.28838    0.61627    1.000
    N5318    N        0.91602    0.37969    0.52052    1.000
    N5319    N        0.93508    0.29036    0.53871    1.000
    Si5320   Si       0.89156    0.38742    0.60574    1.000
    N5321    N        0.88974    0.48050    0.54697    1.000
    N5322    N        0.88768    0.41677    0.57376    1.000
    Si5323   Si       0.89486    0.45859    0.58360    1.000
    Si5324   Si       0.88034    0.39492    0.53652    1.000
    Si5325   Si       0.88468    0.45902    0.50939    1.000
    N5326    N        0.92335    0.44292    0.49885    1.000
    N5327    N        0.90819    0.34859    0.64298    1.000
    N5328    N        0.88726    0.36317    0.70729    1.000
    N5329    N        0.88878    0.29937    0.69162    1.000
    Si5330   Si       0.91346    0.31821    0.72347    1.000
    Si5331   Si       0.91253    0.26338    0.69267    1.000
    Si5332   Si       0.87328    0.32889    0.62916    1.000
    Si5333   Si       0.90633    0.38144    0.67264    1.000
    Si5334   Si       0.92431    0.43946    0.70434    1.000
    Si5335   Si       0.89072    0.38881    0.74328    1.000
    N5336    N        0.88828    0.42879    0.72605    1.000
    Si5337   Si       0.92786    0.50435    0.66647    1.000
    Si5338   Si       0.87589    0.44885    0.65248    1.000
    N5339    N        0.88691    0.40753    0.64255    1.000
    N5340    N        0.90774    0.46687    0.67320    1.000
    N5341    N        0.90063    0.32993    0.76091    1.000
    N5342    N        0.90985    0.35485    0.82407    1.000
    Si5343   Si       0.91596    0.35317    0.86631    1.000
    N5344    N        0.89632    0.25718    0.79347    1.000
    N5345    N        0.92900    0.39253    0.76584    1.000
    N5346    N        0.88599    0.44533    0.85023    1.000
    N5347    N        0.91576    0.47726    0.79674    1.000
    Si5348   Si       0.92451    0.46383    0.83662    1.000
    Si5349   Si       0.87907    0.49713    0.78468    1.000
    N5350    N        0.87805    0.27201    0.87561    1.000
    Si5351   Si       0.92127    0.26841    0.88074    1.000
    N5352    N        0.88713    0.27322    0.97687    1.000
    Si5353   Si       0.89087    0.37578    0.92207    1.000
    N5354    N        0.87964    0.34674    0.89129    1.000
    Si5355   Si       0.92780    0.26988    0.99022    1.000
    Si5356   Si       0.89861    0.38605    0.98646    1.000
    Si5357   Si       0.89367    0.46137    0.95872    1.000
    N5358    N        0.91320    0.42190    0.96568    1.000
    Si5359   Si       0.92776    0.50122    0.90448    1.000
    N5360    N        0.90927    0.49625    0.98002    1.000
    N5361    N        0.91838    0.39639    0.88713    1.000
    Si5362   Si       0.89355    0.43251    0.89136    1.000
    N5363    N        0.90475    0.46541    0.91638    1.000
    N5364    N        0.90019    0.61360    0.08306    1.000
    Si5365   Si       0.90032    0.58121    0.10930    1.000
    N5366    N        0.92517    0.52272    0.03926    1.000
    N5367    N        0.93301    0.55339    0.09914    1.000
    Si5368   Si       0.90488    0.74022    0.08460    1.000
    Si5369   Si       0.90230    0.68680    0.04677    1.000
    N5370    N        0.92240    0.68346    0.08416    1.000
    N5371    N        0.92950    0.69583    0.01345    1.000
    N5372    N        0.87787    0.72353    0.05415    1.000
    N5373    N        0.87804    0.73200    0.11875    1.000
    N5374    N        0.88918    0.51682    0.15227    1.000
    Si5375   Si       0.91685    0.54639    0.16664    1.000
    N5376    N        0.90998    0.54809    0.21080    1.000
    Si5377   Si       0.90002    0.61527    0.18336    1.000
    N5378    N        0.90778    0.58489    0.15312    1.000
    Si5379   Si       0.88622    0.57075    0.23858    1.000
    Si5380   Si       0.88952    0.50900    0.22702    1.000
    N5381    N        0.87631    0.74326    0.24035    1.000
    Si5382   Si       0.92262    0.67902    0.24294    1.000
    N5383    N        0.87679    0.67352    0.24278    1.000
    Si5384   Si       0.90471    0.67854    0.17428    1.000
    N5385    N        0.92427    0.70880    0.20607    1.000
    N5386    N        0.92577    0.64618    0.20228    1.000
    N5387    N        0.88079    0.64411    0.15831    1.000
    Si5388   Si       0.89410    0.73864    0.20036    1.000
    N5389    N        0.90306    0.57968    0.27754    1.000
    N5390    N        0.90966    0.57059    0.33968    1.000
    Si5391   Si       0.88438    0.59747    0.31324    1.000
    N5392    N        0.88552    0.64065    0.31166    1.000
    Si5393   Si       0.89410    0.66059    0.34975    1.000
    Si5394   Si       0.90147    0.73065    0.34314    1.000
    Si5395   Si       0.90706    0.74794    0.26941    1.000
    N5396    N        0.87223    0.69823    0.34116    1.000
    Si5397   Si       0.90713    0.56276    0.38321    1.000
    N5398    N        0.90440    0.60465    0.47647    1.000
    Si5399   Si       0.88116    0.62428    0.41360    1.000
    N5400    N        0.91597    0.60090    0.40290    1.000
    N5401    N        0.92120    0.52279    0.40075    1.000
    N5402    N        0.89385    0.65524    0.44155    1.000
    N5403    N        0.89675    0.74519    0.38307    1.000
    N5404    N        0.88610    0.71661    0.47101    1.000
    Si5405   Si       0.92675    0.64129    0.46526    1.000
    N5406    N        0.90720    0.59117    0.59371    1.000
    N5407    N        0.89803    0.54558    0.51067    1.000
    Si5408   Si       0.89582    0.52258    0.54740    1.000
    Si5409   Si       0.88918    0.55565    0.61211    1.000
    Si5410   Si       0.92628    0.57654    0.49834    1.000
    Si5411   Si       0.89110    0.63100    0.59867    1.000
    Si5412   Si       0.91567    0.63890    0.53114    1.000
    N5413    N        0.90445    0.73085    0.55352    1.000
    N5414    N        0.91333    0.65769    0.56995    1.000
    Si5415   Si       0.89134    0.73177    0.59613    1.000
    Si5416   Si       0.89202    0.72980    0.51364    1.000
    N5417    N        0.87512    0.64180    0.51787    1.000
    Si5418   Si       0.88522    0.52464    0.72697    1.000
    N5419    N        0.91622    0.52519    0.62969    1.000
    N5420    N        0.91783    0.53014    0.69964    1.000
    N5421    N        0.92049    0.59718    0.68674    1.000
    Si5422   Si       0.87530    0.58501    0.68579    1.000
    Si5423   Si       0.89854    0.68259    0.65385    1.000
    N5424    N        0.87323    0.70006    0.62380    1.000
    N5425    N        0.90317    0.64254    0.63809    1.000
    N5426    N        0.87764    0.69148    0.69262    1.000
    N5427    N        0.90649    0.74658    0.66575    1.000
    Si5428   Si       0.88867    0.73233    0.70414    1.000
    N5429    N        0.92856    0.72555    0.72268    1.000
    Si5430   Si       0.87096    0.65676    0.71958    1.000
    N5431    N        0.90444    0.64280    0.74409    1.000
    Si5432   Si       0.89629    0.60719    0.83481    1.000
    N5433    N        0.91125    0.58884    0.79872    1.000
    N5434    N        0.90102    0.53008    0.76657    1.000
    Si5435   Si       0.92083    0.62820    0.78156    1.000
    Si5436   Si       0.93205    0.55606    0.77975    1.000
    N5437    N        0.88533    0.70196    0.86095    1.000
    N5438    N        0.90696    0.64614    0.81941    1.000
    Si5439   Si       0.89582    0.68919    0.82095    1.000
    Si5440   Si       0.92061    0.73768    0.76338    1.000
    N5441    N        0.92384    0.71033    0.79616    1.000
    N5442    N        0.87397    0.73842    0.74699    1.000
    N5443    N        0.91251    0.59887    0.87290    1.000
    Si5444   Si       0.86942    0.55271    0.93143    1.000
    Si5445   Si       0.88635    0.61517    0.97574    1.000
    N5446    N        0.90752    0.53190    0.92682    1.000
    N5447    N        0.88601    0.59269    0.93907    1.000
    Si5448   Si       0.89430    0.62053    0.90605    1.000
    N5449    N        0.92673    0.62323    0.98161    1.000
    N5450    N        0.92394    0.71859    0.92594    1.000
    Si5451   Si       0.89385    0.69657    0.90407    1.000
    N5452    N        0.91650    0.65841    0.91207    1.000
    N5453    N        0.90888    0.85945    0.09549    1.000
    Si5454   Si       0.92163    0.85767    0.05437    1.000
    N5455    N        0.89497    0.79115    0.09766    1.000
    Si5456   Si       0.91094    0.79424    0.00692    1.000
    N5457    N        0.92179    0.81662    0.04068    1.000
    Si5458   Si       0.87593    0.83157    0.10501    1.000
    N5459    N        0.89269    0.88202    0.03087    1.000
    Si5460   Si       0.89159    0.92600    0.03809    1.000
    N5461    N        0.89642    0.98314    0.11048    1.000
    N5462    N        0.90445    0.99772    0.03318    1.000
    N5463    N        0.88310    0.94605    0.99865    1.000
    Si5464   Si       0.91344    0.81825    0.17323    1.000
    N5465    N        0.90260    0.83443    0.21428    1.000
    N5466    N        0.92101    0.86382    0.16441    1.000
    Si5467   Si       0.90196    0.87543    0.20315    1.000
    N5468    N        0.90634    0.76747    0.17075    1.000
    Si5469   Si       0.87941    0.77435    0.13739    1.000
    N5470    N        0.87617    0.81878    0.14799    1.000
    N5471    N        0.93220    0.92333    0.13070    1.000
    N5472    N        0.92111    0.91347    0.20834    1.000
    Si5473   Si       0.87776    0.98038    0.20185    1.000
    N5474    N        0.91543    0.97232    0.18209    1.000
    Si5475   Si       0.91037    0.93818    0.24472    1.000
    N5476    N        0.88346    0.97109    0.24551    1.000
    N5477    N        0.91770    0.84983    0.27675    1.000
    N5478    N        0.88151    0.81507    0.33523    1.000
    Si5479   Si       0.91228    0.84315    0.34397    1.000
    Si5480   Si       0.90237    0.81606    0.25197    1.000
    Si5481   Si       0.88621    0.87702    0.29179    1.000
    N5482    N        0.88667    0.87760    0.33461    1.000
    N5483    N        0.89601    0.75708    0.31040    1.000
    Si5484   Si       0.89983    0.97032    0.36235    1.000
    N5485    N        0.88368    0.91007    0.26526    1.000
    Si5486   Si       0.88349    0.76320    0.45980    1.000
    N5487    N        0.92315    0.77018    0.44214    1.000
    N5488    N        0.92968    0.86704    0.38014    1.000
    Si5489   Si       0.87127    0.90645    0.45245    1.000
    Si5490   Si       0.90660    0.89792    0.39918    1.000
    N5491    N        0.89227    0.92820    0.37105    1.000
    N5492    N        0.89553    0.00054    0.39416    1.000
    N5493    N        0.91423    0.92004    0.43674    1.000
    Si5494   Si       0.90421    0.86671    0.56307    1.000
    N5495    N        0.89362    0.83991    0.53031    1.000
    N5496    N        0.91216    0.84169    0.59817    1.000
    N5497    N        0.88587    0.77479    0.61087    1.000
    Si5498   Si       0.91496    0.80136    0.52130    1.000
    Si5499   Si       0.92076    0.79893    0.59977    1.000
    N5500    N        0.88988    0.77306    0.50074    1.000
    Si5501   Si       0.88834    0.98513    0.53625    1.000
    N5502    N        0.90939    0.92720    0.61322    1.000
    N5503    N        0.92211    0.97043    0.55856    1.000
    N5504    N        0.87417    0.89768    0.56477    1.000
    Si5505   Si       0.86774    0.91591    0.60516    1.000
    N5506    N        0.89104    0.82069    0.66205    1.000
    N5507    N        0.89194    0.80262    0.73355    1.000
    Si5508   Si       0.90047    0.85571    0.63697    1.000
    Si5509   Si       0.89443    0.83707    0.70257    1.000
    Si5510   Si       0.87448    0.78030    0.65568    1.000
    N5511    N        0.92906    0.85392    0.72591    1.000
    Si5512   Si       0.88115    0.98757    0.67524    1.000
    N5513    N        0.88278    0.00051    0.63292    1.000
    N5514    N        0.88972    0.94267    0.67486    1.000
    Si5515   Si       0.92204    0.92359    0.65436    1.000
    N5516    N        0.90835    0.84098    0.78935    1.000
    N5517    N        0.88023    0.76964    0.84024    1.000
    Si5518   Si       0.92412    0.77747    0.83151    1.000
    Si5519   Si       0.92671    0.81587    0.75901    1.000
    N5520    N        0.92713    0.87920    0.84925    1.000
    Si5521   Si       0.89147    0.86052    0.87058    1.000
    N5522    N        0.93068    0.77698    0.78548    1.000
    N5523    N        0.89208    0.97175    0.77281    1.000
    N5524    N        0.92129    0.91993    0.76357    1.000
    Si5525   Si       0.87930    0.93067    0.77038    1.000
    Si5526   Si       0.93259    0.96174    0.76276    1.000
    Si5527   Si       0.91869    0.75978    0.94079    1.000
    N5528    N        0.89898    0.82596    0.97855    1.000
    N5529    N        0.89436    0.82390    0.89364    1.000
    Si5530   Si       0.89137    0.86821    0.98857    1.000
    N5531    N        0.87749    0.76815    0.93752    1.000
    N5532    N        0.93135    0.76474    0.98313    1.000
    Si5533   Si       0.92255    0.96013    0.92805    1.000
    N5534    N        0.88076    0.94876    0.92971    1.000
    Si5535   Si       0.89108    0.98670    0.99214    1.000
    N5536    N        0.91723    0.99669    0.95826    1.000
    Si5537   Si       0.88252    0.92967    0.89029    1.000
    N5538    N        0.92443    0.92716    0.89488    1.000
    N5539    N        0.94386    0.10037    0.11420    1.000
    Si5540   Si       0.97680    0.03092    0.01095    1.000
    N5541    N        0.93781    0.10285    0.03938    1.000
    N5542    N        0.98127    0.04292    0.05195    1.000
    Si5543   Si       0.98625    0.01849    0.08871    1.000
    Si5544   Si       0.96734    0.13530    0.10584    1.000
    Si5545   Si       0.93242    0.19709    0.01350    1.000
    Si5546   Si       0.96133    0.13816    0.04411    1.000
    N5547    N        0.93859    0.15678    0.07717    1.000
    Si5548   Si       0.94874    0.20114    0.08835    1.000
    N5549    N        0.96689    0.16997    0.01412    1.000
    N5550    N        0.93138    0.21915    0.05315    1.000
    N5551    N        0.97458    0.08492    0.17291    1.000
    N5552    N        0.94650    0.12151    0.23456    1.000
    Si5553   Si       0.93778    0.08023    0.15130    1.000
    Si5554   Si       0.97938    0.10985    0.20726    1.000
    N5555    N        0.95386    0.01777    0.21765    1.000
    N5556    N        0.98027    0.15057    0.18965    1.000
    Si5557   Si       0.94372    0.15993    0.21520    1.000
    Si5558   Si       0.95059    0.24578    0.13846    1.000
    N5559    N        0.95178    0.19529    0.23813    1.000
    N5560    N        0.93369    0.20560    0.12874    1.000
    Si5561   Si       0.96620    0.10060    0.31616    1.000
    N5562    N        0.97587    0.07695    0.35227    1.000
    Si5563   Si       0.95686    0.03119    0.26005    1.000
    N5564    N        0.93154    0.08857    0.29561    1.000
    Si5565   Si       0.92756    0.19562    0.27514    1.000
    N5566    N        0.95879    0.14029    0.33303    1.000
    Si5567   Si       0.96442    0.24842    0.32803    1.000
    N5568    N        0.95223    0.20774    0.30923    1.000
    Si5569   Si       0.97540    0.18117    0.33314    1.000
    Si5570   Si       0.94927    0.04912    0.37069    1.000
    N5571    N        0.93590    0.12060    0.45296    1.000
    N5572    N        0.97444    0.01737    0.38527    1.000
    N5573    N        0.98184    0.12188    0.40005    1.000
    Si5574   Si       0.97797    0.12744    0.44316    1.000
    N5575    N        0.96121    0.22910    0.47675    1.000
    N5576    N        0.98494    0.16760    0.44904    1.000
    Si5577   Si       0.97627    0.25796    0.44584    1.000
    N5578    N        0.95236    0.24490    0.41189    1.000
    N5579    N        0.97031    0.18569    0.37488    1.000
    Si5580   Si       0.95463    0.14534    0.37767    1.000
    N5581    N        0.96154    0.10022    0.58051    1.000
    N5582    N        0.96581    0.02140    0.50551    1.000
    N5583    N        0.93500    0.03975    0.56569    1.000
    Si5584   Si       0.93052    0.04204    0.52042    1.000
    Si5585   Si       0.93746    0.12377    0.49749    1.000
    N5586    N        0.97531    0.13461    0.51265    1.000
    N5587    N        0.95916    0.19501    0.54824    1.000
    Si5588   Si       0.96712    0.21815    0.58355    1.000
    N5589    N        0.97027    0.19069    0.61816    1.000
    N5590    N        0.98248    0.02321    0.67929    1.000
    N5591    N        0.96949    0.03517    0.73829    1.000
    Si5592   Si       0.98419    0.12135    0.68232    1.000
    N5593    N        0.94106    0.10970    0.67980    1.000
    Si5594   Si       0.95020    0.00957    0.70730    1.000
    N5595    N        0.93231    0.19073    0.67686    1.000
    N5596    N        0.93797    0.25630    0.65347    1.000
    N5597    N        0.95189    0.20636    0.74469    1.000
    Si5598   Si       0.94966    0.17546    0.71379    1.000
    Si5599   Si       0.95944    0.21437    0.65400    1.000
    N5600    N        0.98879    0.15621    0.70651    1.000
    Si5601   Si       0.95798    0.06104    0.77287    1.000
    Si5602   Si       0.97551    0.05118    0.84906    1.000
    N5603    N        0.98220    0.06473    0.80894    1.000
    N5604    N        0.96204    0.09960    0.74988    1.000
    N5605    N        0.97616    0.08649    0.87516    1.000
    N5606    N        0.93569    0.03533    0.84988    1.000
    Si5607   Si       0.94575    0.16264    0.83099    1.000
    Si5608   Si       0.97852    0.21179    0.78257    1.000
    N5609    N        0.94033    0.19996    0.80633    1.000
    N5610    N        0.94320    0.25043    0.84812    1.000
    N5611    N        0.96353    0.25560    0.78403    1.000
    N5612    N        0.98589    0.15787    0.84299    1.000
    Si5613   Si       0.97955    0.25939    0.82482    1.000
    N5614    N        0.94004    0.11936    0.92724    1.000
    Si5615   Si       0.94275    0.02931    0.95385    1.000
    Si5616   Si       0.96655    0.08606    0.91687    1.000
    N5617    N        0.98085    0.01255    0.95097    1.000
    N5618    N        0.94572    0.05167    0.98998    1.000
    N5619    N        0.93686    0.05473    0.91863    1.000
    N5620    N        0.94059    0.25173    0.91519    1.000
    N5621    N        0.94079    0.22836    0.98163    1.000
    Si5622   Si       0.93860    0.21532    0.93703    1.000
    N5623    N        0.96691    0.18734    0.91919    1.000
    Si5624   Si       0.93472    0.15864    0.90761    1.000
    N5625    N        0.96464    0.33567    0.05721    1.000
    Si5626   Si       0.96997    0.34556    0.10038    1.000
    N5627    N        0.95013    0.26515    0.09754    1.000
    N5628    N        0.98408    0.38677    0.09270    1.000
    Si5629   Si       0.97123    0.41285    0.06178    1.000
    N5630    N        0.98893    0.45151    0.05133    1.000
    N5631    N        0.93027    0.41053    0.05842    1.000
    N5632    N        0.93433    0.34274    0.12348    1.000
    Si5633   Si       0.96059    0.28217    0.20505    1.000
    Si5634   Si       0.97564    0.34674    0.22750    1.000
    N5635    N        0.93372    0.29426    0.23764    1.000
    N5636    N        0.93475    0.26573    0.17213    1.000
    N5637    N        0.97765    0.32133    0.19066    1.000
    N5638    N        0.93712    0.36090    0.24355    1.000
    N5639    N        0.93088    0.49769    0.23910    1.000
    N5640    N        0.94207    0.39191    0.18316    1.000
    Si5641   Si       0.98520    0.40048    0.18565    1.000
    N5642    N        0.94683    0.46597    0.15692    1.000
    N5643    N        0.95135    0.43449    0.24001    1.000
    Si5644   Si       0.95725    0.29803    0.27261    1.000
    N5645    N        0.94031    0.32297    0.30423    1.000
    Si5646   Si       0.93850    0.36418    0.28969    1.000
    Si5647   Si       0.93503    0.31678    0.34522    1.000
    N5648    N        0.97911    0.26628    0.29253    1.000
    N5649    N        0.93573    0.27353    0.34971    1.000
    N5650    N        0.96645    0.33760    0.36876    1.000
    Si5651   Si       0.98040    0.42745    0.32060    1.000
    N5652    N        0.96788    0.39084    0.30437    1.000
    N5653    N        0.96200    0.46119    0.30230    1.000
    N5654    N        0.97048    0.43951    0.36116    1.000
    Si5655   Si       0.95596    0.49253    0.33010    1.000
    Si5656   Si       0.93442    0.46455    0.26821    1.000
    N5657    N        0.96240    0.36725    0.47033    1.000
    N5658    N        0.96004    0.29652    0.45587    1.000
    Si5659   Si       0.98413    0.33067    0.46571    1.000
    N5660    N        0.97798    0.39492    0.40961    1.000
    Si5661   Si       0.94523    0.41924    0.39000    1.000
    N5662    N        0.98202    0.48104    0.41504    1.000
    N5663    N        0.97856    0.43472    0.46856    1.000
    Si5664   Si       0.96476    0.31235    0.56122    1.000
    N5665    N        0.95833    0.31121    0.60419    1.000
    N5666    N        0.97589    0.35043    0.54398    1.000
    Si5667   Si       0.94728    0.38264    0.55134    1.000
    N5668    N        0.93012    0.37446    0.59124    1.000
    Si5669   Si       0.94623    0.34749    0.62281    1.000
    Si5670   Si       0.96572    0.44111    0.50963    1.000
    N5671    N        0.96714    0.42178    0.55005    1.000
    Si5672   Si       0.97189    0.44272    0.58894    1.000
    N5673    N        0.93726    0.46868    0.59361    1.000
    N5674    N        0.99121    0.47775    0.51347    1.000
    N5675    N        0.97786    0.35976    0.65069    1.000
    N5676    N        0.94963    0.32959    0.70461    1.000
    Si5677   Si       0.97041    0.27540    0.62743    1.000
    N5678    N        0.92965    0.27239    0.73066    1.000
    Si5679   Si       0.98786    0.47977    0.71399    1.000
    N5680    N        0.95562    0.45474    0.73150    1.000
    N5681    N        0.94056    0.40533    0.68389    1.000
    Si5682   Si       0.97868    0.40268    0.66253    1.000
    N5683    N        0.97776    0.42165    0.62433    1.000
    N5684    N        0.96979    0.49508    0.67565    1.000
    N5685    N        0.96405    0.32924    0.77264    1.000
    Si5686   Si       0.96429    0.28829    0.75496    1.000
    Si5687   Si       0.97291    0.32029    0.86578    1.000
    N5688    N        0.96699    0.36245    0.86010    1.000
    Si5689   Si       0.92686    0.35344    0.78514    1.000
    Si5690   Si       0.96077    0.42359    0.76142    1.000
    N5691    N        0.95649    0.43708    0.84981    1.000
    Si5692   Si       0.95287    0.49021    0.77534    1.000
    N5693    N        0.97461    0.45587    0.79043    1.000
    N5694    N        0.93300    0.50123    0.86170    1.000
    N5695    N        0.93193    0.31163    0.87276    1.000
    Si5696   Si       0.94986    0.33899    0.97209    1.000
    Si5697   Si       0.97180    0.27810    0.93089    1.000
    N5698    N        0.94741    0.29687    0.96065    1.000
    N5699    N        0.93493    0.36890    0.94396    1.000
    N5700    N        0.97771    0.41304    0.91227    1.000
    Si5701   Si       0.95108    0.41161    0.94621    1.000
    Si5702   Si       0.95959    0.40196    0.87606    1.000
    N5703    N        0.98276    0.42835    0.96983    1.000
    N5704    N        0.96374    0.50471    0.93022    1.000
    Si5705   Si       0.96172    0.54223    0.02376    1.000
    N5706    N        0.97631    0.57395    0.05119    1.000
    Si5707   Si       0.97588    0.55640    0.09190    1.000
    N5708    N        0.97713    0.51377    0.08704    1.000
    N5709    N        0.96632    0.62793    0.10931    1.000
    Si5710   Si       0.98456    0.61339    0.03607    1.000
    Si5711   Si       0.93384    0.51346    0.08156    1.000
    N5712    N        0.94965    0.64033    0.04116    1.000
    Si5713   Si       0.95145    0.70051    0.11182    1.000
    Si5714   Si       0.94751    0.73587    0.01346    1.000
    N5715    N        0.94217    0.74534    0.11171    1.000
    Si5716   Si       0.94727    0.65814    0.99919    1.000
    Si5717   Si       0.93340    0.63960    0.08257    1.000
    N5718    N        0.98982    0.73755    0.00721    1.000
    N5719    N        0.93273    0.75430    0.05028    1.000
    N5720    N        0.97285    0.55531    0.24403    1.000
    Si5721   Si       0.95029    0.53108    0.21645    1.000
    N5722    N        0.95764    0.53370    0.17446    1.000
    N5723    N        0.97965    0.60940    0.18615    1.000
    Si5724   Si       0.98907    0.60823    0.14342    1.000
    N5725    N        0.97890    0.73442    0.16517    1.000
    N5726    N        0.98523    0.68059    0.21462    1.000
    Si5727   Si       0.96935    0.64046    0.21859    1.000
    Si5728   Si       0.96157    0.70050    0.18537    1.000
    N5729    N        0.94095    0.68363    0.15029    1.000
    N5730    N        0.95387    0.52504    0.30185    1.000
    N5731    N        0.96554    0.59537    0.30682    1.000
    Si5732   Si       0.93587    0.56540    0.30400    1.000
    Si5733   Si       0.98123    0.62993    0.28205    1.000
    Si5734   Si       0.96092    0.72501    0.30259    1.000
    N5735    N        0.94124    0.71522    0.34076    1.000
    N5736    N        0.94942    0.64863    0.26023    1.000
    N5737    N        0.93253    0.65805    0.37104    1.000
    N5738    N        0.93159    0.71263    0.27016    1.000
    Si5739   Si       0.95850    0.69560    0.37317    1.000
    N5740    N        0.96085    0.51103    0.46266    1.000
    N5741    N        0.96924    0.57497    0.48627    1.000
    N5742    N        0.98097    0.60703    0.37785    1.000
    Si5743   Si       0.95680    0.51494    0.42136    1.000
    Si5744   Si       0.94992    0.62651    0.39616    1.000
    N5745    N        0.98495    0.54850    0.41952    1.000
    N5746    N        0.98777    0.70025    0.46957    1.000
    N5747    N        0.95834    0.71872    0.41076    1.000
    N5748    N        0.96250    0.63934    0.43751    1.000
    Si5749   Si       0.99085    0.72901    0.43801    1.000
    Si5750   Si       0.93251    0.75532    0.40373    1.000
    N5751    N        0.97539    0.59011    0.58851    1.000
    Si5752   Si       0.93930    0.57769    0.56870    1.000
    N5753    N        0.93843    0.60222    0.53279    1.000
    Si5754   Si       0.97998    0.60428    0.51600    1.000
    N5755    N        0.98374    0.52656    0.61385    1.000
    Si5756   Si       0.94505    0.51126    0.59937    1.000
    N5757    N        0.93260    0.53544    0.56579    1.000
    N5758    N        0.96813    0.70457    0.54793    1.000
    Si5759   Si       0.94410    0.68702    0.58418    1.000
    Si5760   Si       0.95018    0.74689    0.54821    1.000
    N5761    N        0.97809    0.66431    0.59244    1.000
    Si5762   Si       0.95952    0.70069    0.50438    1.000
    N5763    N        0.94487    0.74313    0.50501    1.000
    N5764    N        0.93724    0.66318    0.50118    1.000
    N5765    N        0.93270    0.72098    0.60832    1.000
    Si5766   Si       0.94243    0.56463    0.70409    1.000
    N5767    N        0.97378    0.62434    0.64984    1.000
    N5768    N        0.98112    0.56196    0.68074    1.000
    Si5769   Si       0.93536    0.63227    0.66508    1.000
    Si5770   Si       0.95696    0.70500    0.69784    1.000
    N5771    N        0.97384    0.72966    0.66571    1.000
    N5772    N        0.93563    0.67477    0.67651    1.000
    Si5773   Si       0.94283    0.74680    0.64124    1.000
    N5774    N        0.95853    0.52768    0.79965    1.000
    Si5775   Si       0.96584    0.52390    0.84295    1.000
    N5776    N        0.97842    0.56506    0.85819    1.000
    Si5777   Si       0.98332    0.60162    0.75600    1.000
    N5778    N        0.96361    0.63050    0.78267    1.000
    N5779    N        0.97341    0.63164    0.87089    1.000
    N5780    N        0.95175    0.57421    0.74533    1.000
    N5781    N        0.98607    0.50989    0.74484    1.000
    N5782    N        0.98724    0.68208    0.82330    1.000
    Si5783   Si       0.96452    0.71780    0.81273    1.000
    N5784    N        0.95317    0.74593    0.84406    1.000
    N5785    N        0.98281    0.73550    0.77707    1.000
    Si5786   Si       0.99193    0.67157    0.86712    1.000
    Si5787   Si       0.93673    0.52485    0.95933    1.000
    N5788    N        0.96117    0.58956    0.92493    1.000
    N5789    N        0.95373    0.55580    0.98301    1.000
    Si5790   Si       0.95872    0.59635    0.96837    1.000
    Si5791   Si       0.95518    0.59275    0.88172    1.000
    Si5792   Si       0.96774    0.74351    0.88533    1.000
    Si5793   Si       0.95080    0.68306    0.92641    1.000
    N5794    N        0.96948    0.67846    0.96489    1.000
    N5795    N        0.97526    0.70018    0.89359    1.000
    N5796    N        0.96266    0.87007    0.05405    1.000
    N5797    N        0.96565    0.81262    0.09429    1.000
    Si5798   Si       0.93428    0.79199    0.07425    1.000
    Si5799   Si       0.98601    0.83593    0.06382    1.000
    Si5800   Si       0.94039    0.97927    0.04320    1.000
    N5801    N        0.97329    0.98792    0.01676    1.000
    Si5802   Si       0.97023    0.91243    0.04879    1.000
    N5803    N        0.95382    0.98907    0.08450    1.000
    N5804    N        0.93251    0.93484    0.04904    1.000
    Si5805   Si       0.93688    0.96339    0.11469    1.000
    N5806    N        0.97680    0.87009    0.13146    1.000
    N5807    N        0.95205    0.80417    0.15880    1.000
    Si5808   Si       0.97944    0.82519    0.13300    1.000
    Si5809   Si       0.94713    0.76091    0.15181    1.000
    Si5810   Si       0.93184    0.88084    0.12573    1.000
    N5811    N        0.98030    0.92075    0.18836    1.000
    Si5812   Si       0.94196    0.93619    0.17451    1.000
    N5813    N        0.96612    0.97433    0.14821    1.000
    Si5814   Si       0.94603    0.00397    0.17631    1.000
    N5815    N        0.95473    0.83480    0.32887    1.000
    Si5816   Si       0.96221    0.85398    0.28578    1.000
    Si5817   Si       0.97319    0.78208    0.26426    1.000
    Si5818   Si       0.97286    0.79527    0.34088    1.000
    N5819    N        0.97278    0.76671    0.30641    1.000
    Si5820   Si       0.96362    0.87243    0.35317    1.000
    N5821    N        0.93093    0.78291    0.25539    1.000
    N5822    N        0.97723    0.88540    0.25744    1.000
    Si5823   Si       0.93581    0.98559    0.29830    1.000
    N5824    N        0.93828    0.94831    0.27564    1.000
    N5825    N        0.96706    0.89783    0.31809    1.000
    Si5826   Si       0.96951    0.92008    0.27835    1.000
    N5827    N        0.93755    0.97506    0.34116    1.000
    Si5828   Si       0.96978    0.97562    0.37051    1.000
    N5829    N        0.97451    0.00633    0.28990    1.000
    N5830    N        0.95271    0.78122    0.37574    1.000
    N5831    N        0.94431    0.81362    0.49042    1.000
    Si5832   Si       0.95279    0.77369    0.47577    1.000
    Si5833   Si       0.97975    0.83980    0.49214    1.000
    N5834    N        0.99161    0.76718    0.45766    1.000
    Si5835   Si       0.97044    0.99599    0.47163    1.000
    Si5836   Si       0.94314    0.95162    0.44146    1.000
    N5837    N        0.93423    0.99667    0.44895    1.000
    N5838    N        0.97299    0.95221    0.47438    1.000
    N5839    N        0.97138    0.95160    0.40641    1.000
    Si5840   Si       0.97351    0.87415    0.54183    1.000
    Si5841   Si       0.97904    0.80623    0.56577    1.000
    N5842    N        0.93573    0.78907    0.55916    1.000
    N5843    N        0.97715    0.88256    0.49793    1.000
    N5844    N        0.97453    0.94485    0.58882    1.000
    N5845    N        0.93827    0.89366    0.55515    1.000
    Si5846   Si       0.95172    0.00020    0.57582    1.000
    Si5847   Si       0.93274    0.93108    0.57733    1.000
    N5848    N        0.95452    0.00175    0.62036    1.000
    N5849    N        0.95421    0.78609    0.62653    1.000
    Si5850   Si       0.95435    0.86463    0.69179    1.000
    N5851    N        0.97800    0.82881    0.67977    1.000
    Si5852   Si       0.98809    0.81093    0.63953    1.000
    N5853    N        0.92790    0.87916    0.66086    1.000
    N5854    N        0.96214    0.94037    0.66036    1.000
    N5855    N        0.94587    0.97049    0.72310    1.000
    Si5856   Si       0.97245    0.94294    0.70295    1.000
    N5857    N        0.96764    0.89995    0.71591    1.000
    Si5858   Si       0.97815    0.96321    0.62717    1.000
    Si5859   Si       0.97519    0.77963    0.78126    1.000
    N5860    N        0.96285    0.87120    0.78894    1.000
    Si5861   Si       0.93999    0.84996    0.81989    1.000
    N5862    N        0.93949    0.81469    0.84624    1.000
    N5863    N        0.97133    0.80749    0.74748    1.000
    Si5864   Si       0.94422    0.88536    0.75202    1.000
    N5865    N        0.96857    0.94844    0.85044    1.000
    N5866    N        0.96416    0.97258    0.78954    1.000
    Si5867   Si       0.95500    0.91152    0.86864    1.000
    Si5868   Si       0.94035    0.83830    0.96120    1.000
    N5869    N        0.95302    0.84356    0.91801    1.000
    N5870    N        0.94621    0.77405    0.90842    1.000
    N5871    N        0.97658    0.82090    0.97660    1.000
    Si5872   Si       0.93735    0.81465    0.89184    1.000
    N5873    N        0.93258    0.87950    0.97586    1.000
    Si5874   Si       0.97733    0.98132    0.87695    1.000
    Si5875   Si       0.96639    0.90649    0.97311    1.000
    N5876    N        0.93979    0.98989    0.90070    1.000
    N5877    N        0.95559    0.94421    0.95270    1.000
    Si5878   Si       0.98811    0.97103    0.94373    1.000
    N5879    N        0.98860    0.89002    0.88178    1.000
