# CIF file generated by openbabel 3.1.1, see https://openbabel.org
data_I
_chemical_name_common '3.01-14.aims'
_cell_length_a 39.945
_cell_length_b 39.945
_cell_length_c 39.945
_cell_angle_alpha 90
_cell_angle_beta 90
_cell_angle_gamma 90
loop_
    _atom_site_label
    _atom_site_type_symbol
    _atom_site_fract_x
    _atom_site_fract_y
    _atom_site_fract_z
    _atom_site_occupancy
    Si0      Si       0.06408    0.02041    0.07476    1.000
    N1       N        0.00177    0.02244    0.01822    1.000
    N2       N        0.08291    0.05751    0.08211    1.000
    Si3      Si       0.04130    0.02417    0.00246    1.000
    N4       N        0.02248    0.02003    0.08600    1.000
    Si5      Si       0.98831    0.02661    0.05984    1.000
    Si6      Si       0.15510    0.04159    0.03358    1.000
    Si7      Si       0.19252    0.03034    0.09668    1.000
    N8       N        0.19047    0.02259    0.05343    1.000
    Si9      Si       0.21955    0.01128    0.02475    1.000
    N10      N        0.22890    0.01099    0.11102    1.000
    N11      N        0.17196    0.06258    0.99825    1.000
    N12      N        0.99907    0.01686    0.22744    1.000
    N13      N        0.00573    0.03427    0.15225    1.000
    Si14     Si       0.02591    0.05343    0.21981    1.000
    Si15     Si       0.10340    0.03259    0.22620    1.000
    N16      N        0.06217    0.02593    0.21603    1.000
    N17      N        0.18925    0.00891    0.24389    1.000
    N18      N        0.15659    0.02455    0.12274    1.000
    Si19     Si       0.22913    0.05283    0.19787    1.000
    N20      N        0.20892    0.01883    0.17729    1.000
    Si21     Si       0.15069    0.05122    0.15615    1.000
    N22      N        0.14067    0.03354    0.19662    1.000
    N23      N        0.01198    0.03691    0.34834    1.000
    N24      N        0.10176    0.06228    0.25645    1.000
    N25      N        0.06878    0.04011    0.36771    1.000
    N26      N        0.15273    0.02962    0.30703    1.000
    Si27     Si       0.23048    0.06321    0.36864    1.000
    Si28     Si       0.10965    0.05134    0.37453    1.000
    N29      N        0.09316    0.06376    0.48098    1.000
    N30      N        0.13609    0.01770    0.37350    1.000
    Si31     Si       0.12454    0.04970    0.45137    1.000
    N32      N        0.16563    0.06661    0.44522    1.000
    N33      N        0.23803    0.02132    0.37492    1.000
    N34      N        0.05746    0.02294    0.56839    1.000
    Si35     Si       0.10943    0.03866    0.51348    1.000
    Si36     Si       0.03436    0.01567    0.60631    1.000
    N37      N        0.10547    0.06559    0.54621    1.000
    Si38     Si       0.06825    0.06556    0.56659    1.000
    N39      N        0.16471    0.06133    0.57578    1.000
    Si40     Si       0.19579    0.04028    0.55317    1.000
    Si41     Si       0.14287    0.04025    0.60691    1.000
    N42      N        0.20733    0.05069    0.51196    1.000
    N43      N        0.14857    0.03728    0.49677    1.000
    N44      N        0.23328    0.04888    0.57335    1.000
    Si45     Si       0.24062    0.06230    0.61336    1.000
    Si46     Si       0.01806    0.06400    0.66685    1.000
    N47      N        0.00845    0.03434    0.63538    1.000
    N48      N        0.98818    0.06053    0.69700    1.000
    N49      N        0.05945    0.06465    0.68072    1.000
    Si50     Si       0.20392    0.01947    0.66765    1.000
    N51      N        0.12129    0.05870    0.63872    1.000
    N52      N        0.16824    0.02135    0.63827    1.000
    N53      N        0.18707    0.05609    0.68545    1.000
    Si54     Si       0.14688    0.04499    0.67114    1.000
    Si55     Si       0.20530    0.04796    0.72530    1.000
    N56      N        0.13279    0.01176    0.69481    1.000
    N57      N        0.22965    0.01804    0.70663    1.000
    Si58     Si       0.13312    0.03636    0.73122    1.000
    N59      N        0.23557    0.02553    0.63588    1.000
    Si60     Si       0.08240    0.04096    0.78520    1.000
    Si61     Si       0.01986    0.02669    0.82101    1.000
    N62      N        0.00084    0.04574    0.78581    1.000
    N63      N        0.01918    0.05764    0.85211    1.000
    N64      N        0.06172    0.01700    0.81428    1.000
    N65      N        0.10698    0.01561    0.75997    1.000
    N66      N        0.05945    0.06128    0.75240    1.000
    Si67     Si       0.18706    0.03222    0.79061    1.000
    N68      N        0.23082    0.03138    0.78867    1.000
    N69      N        0.17440    0.03157    0.74882    1.000
    N70      N        0.07785    0.03497    0.93373    1.000
    Si71     Si       0.00821    0.04046    0.89033    1.000
    N72      N        0.04873    0.06481    0.98841    1.000
    N73      N        0.14136    0.06523    0.92370    1.000
    Si74     Si       0.23065    0.04127    0.91374    1.000
    Si75     Si       0.16728    0.04803    0.95532    1.000
    N76      N        0.19999    0.03041    0.88574    1.000
    N77      N        0.12918    0.01522    0.88597    1.000
    Si78     Si       0.15820    0.04653    0.88386    1.000
    N79      N        0.21039    0.05156    0.94938    1.000
    Si80     Si       0.11963    0.02740    0.92681    1.000
    N81      N        0.14926    0.00994    0.95251    1.000
    Si82     Si       0.06559    0.09992    0.00619    1.000
    N83      N        0.06285    0.11028    0.04805    1.000
    Si84     Si       0.08869    0.08242    0.11767    1.000
    Si85     Si       0.10227    0.08909    0.05738    1.000
    N86      N        0.10647    0.11671    0.09531    1.000
    N87      N        0.10793    0.08827    0.01250    1.000
    Si88     Si       0.17948    0.09936    0.07409    1.000
    N89      N        0.18643    0.11572    0.03489    1.000
    N90      N        0.20065    0.07187    0.10165    1.000
    Si91     Si       0.14775    0.10798    0.00835    1.000
    N92      N        0.14539    0.07485    0.05977    1.000
    N93      N        0.04870    0.09097    0.13084    1.000
    N94      N        0.02023    0.08851    0.19465    1.000
    Si95     Si       0.01288    0.07563    0.15193    1.000
    Si96     Si       0.02133    0.12456    0.12239    1.000
    N97      N        0.14250    0.09998    0.21455    1.000
    Si98     Si       0.11676    0.10521    0.18114    1.000
    Si99     Si       0.22008    0.08402    0.13942    1.000
    Si100    Si       0.18193    0.10340    0.20023    1.000
    N101     N        0.21306    0.08545    0.22413    1.000
    N102     N        0.18461    0.07895    0.16484    1.000
    N103     N        0.11787    0.07714    0.14821    1.000
    N104     N        0.05987    0.08721    0.31805    1.000
    Si105    Si       0.09086    0.10982    0.33930    1.000
    Si106    Si       0.06870    0.08625    0.27631    1.000
    Si107    Si       0.03864    0.07398    0.35799    1.000
    N108     N        0.03331    0.07352    0.25669    1.000
    N109     N        0.09000    0.12375    0.26482    1.000
    N110     N        0.15711    0.09785    0.28697    1.000
    N111     N        0.12282    0.07985    0.34456    1.000
    N112     N        0.19352    0.07909    0.34939    1.000
    Si113    Si       0.12681    0.09826    0.25520    1.000
    N114     N        0.22606    0.11171    0.29442    1.000
    Si115    Si       0.15997    0.07053    0.32164    1.000
    Si116    Si       0.19411    0.12074    0.36395    1.000
    N117     N        0.06866    0.10625    0.37620    1.000
    N118     N        0.00614    0.09109    0.38142    1.000
    N119     N        0.05098    0.09787    0.43839    1.000
    Si120    Si       0.08664    0.10589    0.41776    1.000
    Si121    Si       0.05811    0.08888    0.48119    1.000
    Si122    Si       0.01606    0.11345    0.41749    1.000
    N123     N        0.10885    0.06941    0.41479    1.000
    N124     N        0.17288    0.12200    0.40091    1.000
    Si125    Si       0.17692    0.06987    0.48805    1.000
    N126     N        0.20633    0.10764    0.46845    1.000
    N127     N        0.22814    0.08043    0.40841    1.000
    Si128    Si       0.19257    0.09691    0.42958    1.000
    N129     N        0.04689    0.10110    0.55646    1.000
    Si130    Si       0.03232    0.10454    0.60167    1.000
    Si131    Si       0.00229    0.09972    0.53752    1.000
    N132     N        0.99258    0.09251    0.58223    1.000
    N133     N        0.02020    0.07921    0.50140    1.000
    N134     N        0.06398    0.07602    0.61044    1.000
    Si135    Si       0.14031    0.09048    0.55293    1.000
    N136     N        0.16373    0.10214    0.51777    1.000
    N137     N        0.13008    0.12142    0.57779    1.000
    Si138    Si       0.08484    0.08055    0.64893    1.000
    N139     N        0.01633    0.10131    0.64509    1.000
    Si140    Si       0.07401    0.08383    0.71683    1.000
    N141     N        0.09798    0.12160    0.66066    1.000
    N142     N        0.05910    0.12404    0.72578    1.000
    N143     N        0.17201    0.12055    0.67849    1.000
    Si144    Si       0.13060    0.11750    0.69151    1.000
    N145     N        0.21223    0.09230    0.62482    1.000
    N146     N        0.22008    0.08293    0.74294    1.000
    N147     N        0.11960    0.07612    0.70873    1.000
    Si148    Si       0.20478    0.09265    0.66890    1.000
    Si149    Si       0.08487    0.11129    0.80865    1.000
    N150     N        0.04102    0.10128    0.80059    1.000
    Si151    Si       0.02098    0.07981    0.76963    1.000
    Si152    Si       0.03506    0.09774    0.84520    1.000
    N153     N        0.07627    0.11099    0.85221    1.000
    N154     N        0.10612    0.07304    0.80328    1.000
    N155     N        0.98810    0.10428    0.75321    1.000
    Si156    Si       0.20744    0.09791    0.78176    1.000
    Si157    Si       0.14446    0.08846    0.82136    1.000
    N158     N        0.16049    0.08244    0.86230    1.000
    N159     N        0.17640    0.07410    0.79962    1.000
    N160     N        0.13271    0.12962    0.82722    1.000
    Si161    Si       0.00414    0.11207    0.90519    1.000
    N162     N        0.08130    0.10311    0.94425    1.000
    N163     N        0.02233    0.07287    0.91730    1.000
    Si164    Si       0.05583    0.06849    0.94523    1.000
    Si165    Si       0.12300    0.10475    0.93278    1.000
    Si166    Si       0.17031    0.11995    0.88201    1.000
    N167     N        0.19712    0.11959    0.91728    1.000
    Si168    Si       0.21413    0.07186    0.98841    1.000
    N169     N        0.22525    0.11170    0.97752    1.000
    Si170    Si       0.23583    0.11035    0.93417    1.000
    N171     N        0.14540    0.12171    0.96549    1.000
    N172     N        0.01882    0.15388    0.09244    1.000
    Si173    Si       0.03664    0.14506    0.05484    1.000
    Si174    Si       0.10503    0.15263    0.06683    1.000
    N175     N        0.99740    0.13727    0.03380    1.000
    N176     N        0.07029    0.17619    0.05337    1.000
    Si177    Si       0.98945    0.18519    0.10012    1.000
    N178     N        0.12098    0.17796    0.09937    1.000
    N179     N        0.12947    0.14869    0.03258    1.000
    Si180    Si       0.22294    0.13193    0.01618    1.000
    N181     N        0.23423    0.17289    0.01237    1.000
    N182     N        0.17265    0.13424    0.09926    1.000
    Si183    Si       0.13506    0.14003    0.11945    1.000
    Si184    Si       0.20650    0.15658    0.11564    1.000
    Si185    Si       0.14632    0.18175    0.01181    1.000
    N186     N        0.02120    0.14591    0.15893    1.000
    Si187    Si       0.09910    0.16856    0.17949    1.000
    N188     N        0.03652    0.15735    0.23014    1.000
    N189     N        0.08030    0.12706    0.18756    1.000
    Si190    Si       0.03836    0.12937    0.19401    1.000
    N191     N        0.10463    0.18079    0.22137    1.000
    N192     N        0.19135    0.14528    0.20043    1.000
    N193     N        0.13560    0.14065    0.16209    1.000
    N194     N        0.18448    0.18406    0.14399    1.000
    Si195    Si       0.20929    0.17034    0.23201    1.000
    Si196    Si       0.16385    0.17139    0.17939    1.000
    N197     N        0.23103    0.12456    0.13443    1.000
    N198     N        0.09965    0.15167    0.33458    1.000
    Si199    Si       0.00007    0.16975    0.36468    1.000
    Si200    Si       0.07865    0.16354    0.25197    1.000
    N201     N        0.23247    0.14114    0.35797    1.000
    Si202    Si       0.13995    0.16870    0.33903    1.000
    N203     N        0.17315    0.14212    0.33259    1.000
    N204     N        0.19001    0.17085    0.27180    1.000
    Si205    Si       0.18723    0.13236    0.29335    1.000
    Si206    Si       0.08767    0.16058    0.47081    1.000
    N207     N        0.01881    0.15484    0.40036    1.000
    N208     N        0.10617    0.13858    0.43445    1.000
    N209     N        0.23786    0.16586    0.42168    1.000
    N210     N        0.13992    0.17765    0.38143    1.000
    Si211    Si       0.14376    0.15261    0.41677    1.000
    N212     N        0.16829    0.17495    0.44530    1.000
    N213     N        0.00850    0.14379    0.53623    1.000
    Si214    Si       0.05192    0.13940    0.53291    1.000
    N215     N        0.07546    0.17095    0.55138    1.000
    N216     N        0.04342    0.14601    0.60873    1.000
    Si217    Si       0.06095    0.18130    0.58956    1.000
    N218     N        0.06760    0.12901    0.49360    1.000
    Si219    Si       0.15281    0.15486    0.59120    1.000
    N220     N        0.19443    0.15009    0.57961    1.000
    N221     N        0.18261    0.16580    0.50969    1.000
    Si222    Si       0.22233    0.13139    0.60572    1.000
    Si223    Si       0.19737    0.12629    0.50667    1.000
    Si224    Si       0.19306    0.18262    0.54796    1.000
    N225     N        0.11796    0.17823    0.49562    1.000
    Si226    Si       0.02764    0.15323    0.70951    1.000
    Si227    Si       0.06995    0.15206    0.64490    1.000
    N228     N        0.05374    0.17365    0.68207    1.000
    N229     N        0.99041    0.15298    0.68628    1.000
    Si230    Si       0.08695    0.15214    0.74421    1.000
    N231     N        0.12615    0.14883    0.72360    1.000
    N232     N        0.15626    0.16395    0.63255    1.000
    Si233    Si       0.18802    0.15757    0.66169    1.000
    N234     N        0.23450    0.14801    0.73729    1.000
    N235     N        0.18491    0.18247    0.69606    1.000
    N236     N        0.22767    0.15326    0.64205    1.000
    N237     N        0.08468    0.14986    0.78752    1.000
    Si238    Si       0.99682    0.16217    0.83862    1.000
    N239     N        0.09241    0.17966    0.85589    1.000
    Si240    Si       0.10740    0.13955    0.86348    1.000
    Si241    Si       0.06949    0.17905    0.81430    1.000
    N242     N        0.00678    0.12634    0.86231    1.000
    N243     N        0.01138    0.16690    0.74817    1.000
    Si244    Si       0.16740    0.15424    0.81995    1.000
    N245     N        0.18811    0.14999    0.85769    1.000
    Si246    Si       0.22682    0.16266    0.77710    1.000
    N247     N        0.19410    0.13767    0.79057    1.000
    N248     N        0.04472    0.13493    0.98905    1.000
    Si249    Si       0.00061    0.13248    0.99032    1.000
    Si250    Si       0.05898    0.14025    0.94898    1.000
    N251     N        0.07488    0.17584    0.93028    1.000
    N252     N        0.01906    0.14033    0.93440    1.000
    Si253    Si       0.01484    0.18118    0.92457    1.000
    Si254    Si       0.20522    0.18147    0.88017    1.000
    N255     N        0.13194    0.13137    0.89790    1.000
    Si256    Si       0.17452    0.14824    0.94481    1.000
    N257     N        0.17459    0.18009    0.97853    1.000
    N258     N        0.18230    0.18299    0.91558    1.000
    Si259    Si       0.08447    0.21345    0.03408    1.000
    N260     N        0.11015    0.23899    0.05745    1.000
    N261     N        0.04786    0.23556    0.02432    1.000
    N262     N        0.11285    0.20605    0.00105    1.000
    N263     N        0.23214    0.23551    0.03885    1.000
    N264     N        0.16992    0.20915    0.03447    1.000
    N265     N        0.16835    0.22986    0.10210    1.000
    Si266    Si       0.20905    0.20846    0.01021    1.000
    Si267    Si       0.15483    0.24043    0.06244    1.000
    N268     N        0.24096    0.24652    0.11200    1.000
    N269     N        0.22558    0.19161    0.09798    1.000
    N270     N        0.01418    0.21317    0.12244    1.000
    N271     N        0.99480    0.19765    0.18907    1.000
    Si272    Si       0.08503    0.23039    0.16185    1.000
    N273     N        0.06527    0.19230    0.16614    1.000
    Si274    Si       0.02478    0.18903    0.15777    1.000
    Si275    Si       0.00425    0.18629    0.22937    1.000
    N276     N        0.10286    0.24457    0.12282    1.000
    Si277    Si       0.19707    0.23437    0.20212    1.000
    N278     N        0.16620    0.20400    0.20864    1.000
    Si279    Si       0.12758    0.22118    0.21506    1.000
    N280     N        0.22958    0.20958    0.21876    1.000
    Si281    Si       0.20465    0.22109    0.12457    1.000
    N282     N        0.20275    0.24668    0.16109    1.000
    Si283    Si       0.13375    0.21382    0.12130    1.000
    N284     N        0.12478    0.20318    0.16455    1.000
    N285     N        0.08627    0.21799    0.35311    1.000
    N286     N        0.08255    0.19543    0.28514    1.000
    N287     N        0.00697    0.22421    0.24927    1.000
    Si288    Si       0.05177    0.24164    0.36819    1.000
    N289     N        0.03079    0.18016    0.33535    1.000
    Si290    Si       0.07132    0.18543    0.32749    1.000
    Si291    Si       0.11431    0.22559    0.29249    1.000
    N292     N        0.13350    0.23914    0.25576    1.000
    Si293    Si       0.18704    0.20647    0.29904    1.000
    N294     N        0.20909    0.21198    0.33809    1.000
    N295     N        0.14527    0.20192    0.31336    1.000
    Si296    Si       0.18857    0.23798    0.36767    1.000
    N297     N        0.05731    0.19058    0.45805    1.000
    Si298    Si       0.06478    0.23293    0.44595    1.000
    N299     N        0.04212    0.22511    0.40750    1.000
    Si300    Si       0.99492    0.22176    0.47965    1.000
    Si301    Si       0.02599    0.18886    0.42726    1.000
    N302     N        0.10682    0.22861    0.42266    1.000
    N303     N        0.20964    0.21666    0.40050    1.000
    Si304    Si       0.11822    0.21510    0.38206    1.000
    N305     N        0.21564    0.21672    0.47125    1.000
    Si306    Si       0.15734    0.19161    0.48443    1.000
    N307     N        0.15121    0.23553    0.47847    1.000
    Si308    Si       0.20792    0.19129    0.43772    1.000
    Si309    Si       0.23167    0.18219    0.37835    1.000
    N310     N        0.02385    0.20353    0.58667    1.000
    Si311    Si       0.01180    0.23066    0.55461    1.000
    N312     N        0.99823    0.20979    0.51994    1.000
    Si313    Si       0.11251    0.18894    0.53762    1.000
    N314     N        0.11330    0.23405    0.54494    1.000
    N315     N        0.18950    0.22710    0.54335    1.000
    N316     N        0.14812    0.22914    0.61276    1.000
    Si317    Si       0.15185    0.23367    0.56672    1.000
    Si318    Si       0.23416    0.23307    0.54354    1.000
    N319     N        0.23925    0.18913    0.54963    1.000
    N320     N        0.14772    0.18728    0.56367    1.000
    N321     N        0.08972    0.18687    0.62152    1.000
    Si322    Si       0.07898    0.20581    0.69558    1.000
    N323     N        0.08278    0.19539    0.73803    1.000
    Si324    Si       0.14500    0.18828    0.71332    1.000
    Si325    Si       0.12951    0.19930    0.63829    1.000
    N326     N        0.22423    0.23365    0.71288    1.000
    Si327    Si       0.22321    0.18983    0.71507    1.000
    N328     N        0.11925    0.20532    0.67954    1.000
    N329     N        0.14953    0.22006    0.74577    1.000
    N330     N        0.08778    0.21976    0.80541    1.000
    Si331    Si       0.07912    0.22913    0.76333    1.000
    Si332    Si       0.01282    0.20458    0.77296    1.000
    N333     N        0.03706    0.23749    0.75629    1.000
    N334     N        0.02683    0.18234    0.81016    1.000
    Si335    Si       0.11862    0.21076    0.83601    1.000
    Si336    Si       0.17236    0.21353    0.78176    1.000
    N337     N        0.20926    0.20002    0.76474    1.000
    N338     N        0.15182    0.19252    0.81223    1.000
    N339     N        0.20865    0.21907    0.85899    1.000
    N340     N        0.14190    0.23741    0.86230    1.000
    Si341    Si       0.23610    0.23628    0.76097    1.000
    Si342    Si       0.99988    0.22586    0.87691    1.000
    N343     N        0.03087    0.19716    0.88836    1.000
    Si344    Si       0.07355    0.19576    0.89209    1.000
    N345     N        0.01808    0.20713    0.95929    1.000
    N346     N        0.08402    0.23831    0.88765    1.000
    Si347    Si       0.03789    0.23629    0.98225    1.000
    N348     N        0.13926    0.22789    0.93859    1.000
    Si349    Si       0.11562    0.23977    0.97408    1.000
    Si350    Si       0.17829    0.21307    0.94993    1.000
    N351     N        0.20631    0.23864    0.97360    1.000
    Si352    Si       0.02165    0.26646    0.04475    1.000
    N353     N        0.04581    0.26487    0.08735    1.000
    Si354    Si       0.08862    0.26184    0.08726    1.000
    N355     N        0.16655    0.27992    0.05435    1.000
    Si356    Si       0.15737    0.29426    0.01599    1.000
    Si357    Si       0.02433    0.25411    0.12508    1.000
    Si358    Si       0.06859    0.28241    0.19226    1.000
    N359     N        0.04441    0.28186    0.22910    1.000
    N360     N        0.10057    0.25127    0.19768    1.000
    N361     N        0.04950    0.25868    0.15935    1.000
    N362     N        0.99293    0.28138    0.12665    1.000
    Si363    Si       0.22654    0.27921    0.14097    1.000
    N364     N        0.18166    0.26959    0.22210    1.000
    N365     N        0.23113    0.29631    0.18381    1.000
    Si366    Si       0.18928    0.30227    0.19456    1.000
    N367     N        0.01588    0.25446    0.34487    1.000
    N368     N        0.02635    0.29422    0.28591    1.000
    Si369    Si       0.01475    0.29710    0.32905    1.000
    Si370    Si       0.00675    0.26897    0.25538    1.000
    N371     N        0.11065    0.26717    0.30845    1.000
    Si372    Si       0.11549    0.27057    0.35089    1.000
    Si373    Si       0.16421    0.26907    0.26112    1.000
    N374     N        0.19430    0.24748    0.28343    1.000
    Si375    Si       0.23267    0.26936    0.28460    1.000
    N376     N        0.14561    0.24781    0.36955    1.000
    N377     N        0.07740    0.27636    0.37406    1.000
    N378     N        0.08757    0.26517    0.46692    1.000
    Si379    Si       0.00562    0.28206    0.47172    1.000
    N380     N        0.02905    0.24509    0.47069    1.000
    N381     N        0.13953    0.29805    0.45858    1.000
    Si382    Si       0.12635    0.25685    0.45139    1.000
    Si383    Si       0.19131    0.25083    0.48076    1.000
    N384     N        0.20543    0.27765    0.44650    1.000
    N385     N        0.20823    0.27695    0.37945    1.000
    Si386    Si       0.22581    0.25601    0.41491    1.000
    N387     N        0.04535    0.25973    0.54801    1.000
    Si388    Si       0.08922    0.26884    0.55041    1.000
    Si389    Si       0.01660    0.29196    0.54430    1.000
    N390     N        0.09376    0.29554    0.58355    1.000
    N391     N        0.11123    0.29525    0.52226    1.000
    N392     N        0.16328    0.27653    0.57551    1.000
    Si393    Si       0.19650    0.29191    0.55174    1.000
    N394     N        0.19852    0.28632    0.50754    1.000
    N395     N        0.23043    0.26871    0.56899    1.000
    Si396    Si       0.16796    0.26736    0.61907    1.000
    N397     N        0.00785    0.27674    0.62872    1.000
    Si398    Si       0.03108    0.26516    0.72054    1.000
    N399     N        0.99480    0.26602    0.69835    1.000
    Si400    Si       0.08647    0.30097    0.73533    1.000
    N401     N        0.05821    0.24302    0.69178    1.000
    Si402    Si       0.20353    0.25987    0.68934    1.000
    N403     N        0.16309    0.26986    0.70429    1.000
    N404     N        0.20373    0.26609    0.64338    1.000
    Si405    Si       0.14281    0.26309    0.74111    1.000
    N406     N        0.13980    0.29045    0.64072    1.000
    N407     N        0.23331    0.29264    0.69005    1.000
    N408     N        0.02363    0.25564    0.85168    1.000
    N409     N        0.07883    0.30026    0.84771    1.000
    Si410    Si       0.05887    0.26966    0.87128    1.000
    Si411    Si       0.99453    0.28525    0.83448    1.000
    N412     N        0.10033    0.26257    0.74685    1.000
    N413     N        0.00405    0.30753    0.79870    1.000
    N414     N        0.18326    0.25043    0.80020    1.000
    Si415    Si       0.19788    0.29018    0.78441    1.000
    N416     N        0.23127    0.27952    0.75820    1.000
    N417     N        0.18752    0.28693    0.85805    1.000
    Si418    Si       0.17885    0.24713    0.84325    1.000
    N419     N        0.15947    0.29918    0.76511    1.000
    N420     N        0.07542    0.25392    0.96348    1.000
    N421     N        0.04562    0.28771    0.90761    1.000
    Si422    Si       0.07782    0.28892    0.93890    1.000
    Si423    Si       0.00353    0.29216    0.90231    1.000
    N424     N        0.00799    0.27047    0.98286    1.000
    N425     N        0.18835    0.30064    0.92880    1.000
    N426     N        0.11633    0.28803    0.92081    1.000
    Si427    Si       0.21324    0.29712    0.89156    1.000
    Si428    Si       0.14867    0.29843    0.94800    1.000
    Si429    Si       0.21320    0.28240    0.96189    1.000
    N430     N        0.13866    0.27439    0.98455    1.000
    Si431    Si       0.12408    0.24796    0.90084    1.000
    Si432    Si       0.02735    0.35044    0.03070    1.000
    N433     N        0.03070    0.30991    0.04468    1.000
    Si434    Si       0.04998    0.30993    0.08375    1.000
    N435     N        0.03484    0.33730    0.11334    1.000
    N436     N        0.09244    0.30532    0.08094    1.000
    Si437    Si       0.12112    0.33299    0.06479    1.000
    Si438    Si       0.21529    0.33892    0.01649    1.000
    N439     N        0.13416    0.33017    0.02246    1.000
    N440     N        0.15202    0.33413    0.09395    1.000
    N441     N        0.21401    0.33470    0.05875    1.000
    Si442    Si       0.18541    0.30943    0.08029    1.000
    N443     N        0.19659    0.30570    0.99633    1.000
    Si444    Si       0.99858    0.32381    0.13817    1.000
    N445     N        0.00537    0.33434    0.18166    1.000
    N446     N        0.08078    0.32319    0.18482    1.000
    Si447    Si       0.04600    0.34965    0.19220    1.000
    N448     N        0.04534    0.34978    0.23646    1.000
    N449     N        0.19844    0.30457    0.12159    1.000
    N450     N        0.15242    0.30989    0.17189    1.000
    Si451    Si       0.12196    0.33809    0.18166    1.000
    Si452    Si       0.16881    0.33501    0.13691    1.000
    N453     N        0.19446    0.33535    0.22064    1.000
    N454     N        0.09091    0.33089    0.27690    1.000
    N455     N        0.04263    0.32594    0.34531    1.000
    Si456    Si       0.05572    0.31115    0.25924    1.000
    Si457    Si       0.08034    0.31869    0.36772    1.000
    N458     N        0.11917    0.31585    0.34451    1.000
    Si459    Si       0.11871    0.30779    0.29891    1.000
    N460     N        0.18582    0.33410    0.34157    1.000
    Si461    Si       0.18916    0.33028    0.29887    1.000
    Si462    Si       0.15007    0.34265    0.36305    1.000
    N463     N        0.22298    0.30956    0.28818    1.000
    N464     N        0.15521    0.31066    0.27543    1.000
    Si465    Si       0.16112    0.34703    0.24687    1.000
    N466     N        0.07212    0.33454    0.47575    1.000
    N467     N        0.08360    0.33855    0.40576    1.000
    Si468    Si       0.05330    0.33565    0.43600    1.000
    N469     N        0.01873    0.30968    0.44080    1.000
    Si470    Si       0.99432    0.34248    0.43320    1.000
    Si471    Si       0.10117    0.30352    0.48161    1.000
    Si472    Si       0.20313    0.32056    0.37952    1.000
    N473     N        0.23645    0.34435    0.39609    1.000
    N474     N        0.20037    0.34352    0.45536    1.000
    Si475    Si       0.15986    0.33132    0.44270    1.000
    Si476    Si       0.21833    0.30811    0.47274    1.000
    N477     N        0.16407    0.33017    0.40098    1.000
    N478     N        0.01466    0.32626    0.57173    1.000
    N479     N        0.00495    0.30964    0.50621    1.000
    N480     N        0.07436    0.35134    0.54959    1.000
    Si481    Si       0.11289    0.32831    0.55089    1.000
    Si482    Si       0.99229    0.31375    0.60943    1.000
    Si483    Si       0.11762    0.31474    0.61483    1.000
    N484     N        0.20446    0.33458    0.55596    1.000
    N485     N        0.13413    0.34603    0.58623    1.000
    N486     N        0.13992    0.35554    0.52399    1.000
    Si487    Si       0.10116    0.35268    0.68863    1.000
    Si488    Si       0.03272    0.34657    0.72398    1.000
    N489     N        0.10277    0.34399    0.64517    1.000
    N490     N        0.00084    0.34508    0.63546    1.000
    N491     N        0.04339    0.30400    0.72833    1.000
    N492     N        0.11108    0.31339    0.70221    1.000
    Si493    Si       0.22238    0.33887    0.68765    1.000
    Si494    Si       0.14632    0.30273    0.68021    1.000
    N495     N        0.17838    0.33324    0.67692    1.000
    N496     N        0.09599    0.32990    0.76588    1.000
    Si497    Si       0.10103    0.33847    0.84878    1.000
    N498     N        0.03062    0.35757    0.76620    1.000
    Si499    Si       0.99536    0.35642    0.86297    1.000
    Si500    Si       0.99267    0.34595    0.78604    1.000
    N501     N        0.99733    0.31405    0.86579    1.000
    Si502    Si       0.07109    0.36222    0.77777    1.000
    N503     N        0.20794    0.32691    0.80554    1.000
    N504     N        0.13663    0.32624    0.82538    1.000
    Si505    Si       0.13589    0.32822    0.78202    1.000
    Si506    Si       0.17201    0.32693    0.85223    1.000
    N507     N        0.99182    0.31661    0.93612    1.000
    N508     N        0.06010    0.32039    0.96495    1.000
    Si509    Si       0.01745    0.31006    0.96954    1.000
    N510     N        0.08981    0.35867    0.88670    1.000
    Si511    Si       0.05516    0.36265    0.97046    1.000
    N512     N        0.00173    0.34080    0.99660    1.000
    N513     N        0.15240    0.34660    0.88756    1.000
    N514     N        0.14685    0.34267    0.94976    1.000
    Si515    Si       0.18367    0.34560    0.92024    1.000
    N516     N        0.21088    0.34080    0.88079    1.000
    Si517    Si       0.14780    0.35890    0.99090    1.000
    N518     N        0.00679    0.37662    0.05829    1.000
    Si519    Si       0.09212    0.39378    0.02882    1.000
    N520     N        0.05938    0.36980    0.01322    1.000
    N521     N        0.10514    0.37489    0.06548    1.000
    Si522    Si       0.00968    0.37269    0.10112    1.000
    Si523    Si       0.10553    0.41415    0.08440    1.000
    N524     N        0.20309    0.39022    0.10302    1.000
    Si525    Si       0.20211    0.40858    0.02111    1.000
    N526     N        0.18609    0.36952    0.00569    1.000
    Si527    Si       0.23069    0.36913    0.07709    1.000
    N528     N        0.23685    0.39230    0.04250    1.000
    N529     N        0.14174    0.42639    0.10495    1.000
    N530     N        0.12280    0.39385    0.99788    1.000
    N531     N        0.08247    0.41062    0.12190    1.000
    N532     N        0.01281    0.40712    0.12789    1.000
    N533     N        0.05629    0.38891    0.18335    1.000
    N534     N        0.01501    0.40958    0.23242    1.000
    Si535    Si       0.05068    0.41099    0.14854    1.000
    N536     N        0.08543    0.40539    0.24537    1.000
    N537     N        0.21452    0.39903    0.22414    1.000
    Si538    Si       0.12331    0.40716    0.14037    1.000
    Si539    Si       0.23304    0.37978    0.13899    1.000
    Si540    Si       0.12196    0.40408    0.21897    1.000
    N541     N        0.13063    0.36591    0.14879    1.000
    N542     N        0.13242    0.36179    0.21907    1.000
    Si543    Si       0.21879    0.36381    0.19977    1.000
    N544     N        0.19617    0.35945    0.16215    1.000
    N545     N        0.06466    0.38999    0.35630    1.000
    Si546    Si       0.10416    0.39993    0.34584    1.000
    Si547    Si       0.08074    0.37283    0.27633    1.000
    N548     N        0.03970    0.37531    0.29374    1.000
    N549     N        0.99672    0.37932    0.35201    1.000
    Si550    Si       0.01545    0.37386    0.25785    1.000
    Si551    Si       0.03388    0.36771    0.33559    1.000
    N552     N        0.10931    0.39606    0.30296    1.000
    Si553    Si       0.21763    0.39519    0.26775    1.000
    N554     N        0.18540    0.36733    0.27761    1.000
    N555     N        0.02681    0.37105    0.42206    1.000
    Si556    Si       0.05116    0.39706    0.39665    1.000
    N557     N        0.08771    0.40892    0.41673    1.000
    Si558    Si       0.00526    0.40773    0.43922    1.000
    Si559    Si       0.11093    0.37228    0.41344    1.000
    N560     N        0.22352    0.41477    0.41963    1.000
    Si561    Si       0.12946    0.38218    0.49248    1.000
    N562     N        0.12908    0.37905    0.37349    1.000
    Si563    Si       0.22447    0.37079    0.42968    1.000
    N564     N        0.13369    0.36566    0.45136    1.000
    N565     N        0.15529    0.41780    0.49790    1.000
    N566     N        0.02339    0.39516    0.58969    1.000
    N567     N        0.02175    0.37278    0.52252    1.000
    N568     N        0.09218    0.40263    0.60725    1.000
    Si569    Si       0.05155    0.41537    0.61776    1.000
    N570     N        0.08902    0.39592    0.49940    1.000
    Si571    Si       0.06389    0.36321    0.50953    1.000
    Si572    Si       0.01242    0.41676    0.51537    1.000
    Si573    Si       0.03525    0.36190    0.56588    1.000
    Si574    Si       0.16790    0.35889    0.55905    1.000
    N575     N        0.17711    0.40228    0.56413    1.000
    Si576    Si       0.21477    0.41675    0.58309    1.000
    Si577    Si       0.12178    0.37501    0.62090    1.000
    N578     N        0.23869    0.38260    0.59563    1.000
    N579     N        0.00040    0.36565    0.70234    1.000
    N580     N        0.04052    0.40736    0.65821    1.000
    N581     N        0.06666    0.36915    0.70711    1.000
    Si582    Si       0.05946    0.41225    0.69705    1.000
    Si583    Si       0.00316    0.38005    0.66119    1.000
    Si584    Si       0.17191    0.37671    0.67589    1.000
    N585     N        0.13445    0.38055    0.69760    1.000
    N586     N        0.21366    0.38234    0.68817    1.000
    N587     N        0.15834    0.39097    0.63681    1.000
    Si588    Si       0.05075    0.39744    0.83517    1.000
    N589     N        0.08355    0.40204    0.76915    1.000
    N590     N        0.02327    0.41656    0.80626    1.000
    N591     N        0.03026    0.37826    0.86958    1.000
    N592     N        0.07699    0.36472    0.82093    1.000
    Si593    Si       0.12576    0.40547    0.77592    1.000
    N594     N        0.19481    0.39628    0.82790    1.000
    N595     N        0.22326    0.38889    0.77319    1.000
    Si596    Si       0.22131    0.38017    0.86352    1.000
    N597     N        0.15224    0.36960    0.77778    1.000
    Si598    Si       0.19247    0.36778    0.79403    1.000
    Si599    Si       0.05799    0.37901    0.90581    1.000
    N600     N        0.02616    0.37723    0.93958    1.000
    N601     N        0.08742    0.37658    0.94461    1.000
    Si602    Si       0.11478    0.40862    0.95837    1.000
    N603     N        0.23289    0.41549    0.88254    1.000
    Si604    Si       0.23705    0.38672    0.96542    1.000
    N605     N        0.20759    0.37233    0.93953    1.000
    N606     N        0.13835    0.40381    0.92050    1.000
    Si607    Si       0.12211    0.36105    0.91576    1.000
    N608     N        0.01365    0.46641    0.05309    1.000
    N609     N        0.09378    0.43430    0.04862    1.000
    Si610    Si       0.00894    0.45240    0.01103    1.000
    Si611    Si       0.10284    0.47500    0.03480    1.000
    N612     N        0.18409    0.43757    0.04654    1.000
    N613     N        0.20568    0.45791    0.11123    1.000
    Si614    Si       0.18322    0.42672    0.09056    1.000
    Si615    Si       0.17615    0.47620    0.03131    1.000
    N616     N        0.13903    0.48106    0.01229    1.000
    N617     N        0.05116    0.46388    0.23408    1.000
    N618     N        0.03942    0.44656    0.17309    1.000
    Si619    Si       0.99970    0.44514    0.15299    1.000
    Si620    Si       0.05297    0.42314    0.21546    1.000
    N621     N        0.12918    0.42559    0.18037    1.000
    N622     N        0.14019    0.43586    0.24030    1.000
    Si623    Si       0.22496    0.43340    0.19955    1.000
    N624     N        0.19012    0.46154    0.19609    1.000
    Si625    Si       0.14859    0.45946    0.20350    1.000
    Si626    Si       0.23909    0.45495    0.13827    1.000
    N627     N        0.23333    0.41761    0.15967    1.000
    N628     N        0.01261    0.44200    0.32821    1.000
    N629     N        0.08853    0.46109    0.29167    1.000
    N630     N        0.10692    0.44302    0.35943    1.000
    Si631    Si       0.99374    0.42217    0.36251    1.000
    Si632    Si       0.11296    0.46925    0.32573    1.000
    Si633    Si       0.12186    0.43096    0.27918    1.000
    N634     N        0.14932    0.45125    0.30934    1.000
    Si635    Si       0.19133    0.45416    0.31331    1.000
    N636     N        0.21660    0.44506    0.35018    1.000
    N637     N        0.22290    0.43540    0.28760    1.000
    Si638    Si       0.10455    0.44719    0.40360    1.000
    N639     N        0.02188    0.43074    0.39601    1.000
    N640     N        0.02223    0.42873    0.47440    1.000
    N641     N        0.10349    0.45787    0.48351    1.000
    Si642    Si       0.03606    0.47127    0.40297    1.000
    Si643    Si       0.02477    0.47306    0.47686    1.000
    N644     N        0.07832    0.47998    0.40801    1.000
    N645     N        0.13927    0.45004    0.42630    1.000
    Si646    Si       0.14201    0.44785    0.47004    1.000
    Si647    Si       0.22563    0.45054    0.39171    1.000
    N648     N        0.06170    0.45611    0.60012    1.000
    Si649    Si       0.08458    0.43505    0.51642    1.000
    N650     N        0.04401    0.43914    0.53557    1.000
    Si651    Si       0.10295    0.44144    0.59073    1.000
    Si652    Si       0.03089    0.46186    0.57054    1.000
    N653     N        0.11565    0.44051    0.54884    1.000
    N654     N        0.99374    0.45099    0.59120    1.000
    Si655    Si       0.15724    0.43233    0.53980    1.000
    N656     N        0.17776    0.47118    0.53750    1.000
    N657     N        0.23698    0.43846    0.55118    1.000
    N658     N        0.13320    0.45625    0.61808    1.000
    N659     N        0.20361    0.44146    0.61642    1.000
    N660     N        0.09492    0.44273    0.69628    1.000
    Si661    Si       0.00690    0.46048    0.71789    1.000
    N662     N        0.03231    0.42749    0.72858    1.000
    N663     N        0.23580    0.44512    0.69676    1.000
    N664     N        0.16627    0.43497    0.68075    1.000
    Si665    Si       0.22625    0.47800    0.63106    1.000
    Si666    Si       0.13402    0.42151    0.70566    1.000
    Si667    Si       0.16713    0.43430    0.63754    1.000
    Si668    Si       0.19579    0.46229    0.69615    1.000
    N669     N        0.06293    0.46532    0.78340    1.000
    Si670    Si       0.09366    0.45771    0.81544    1.000
    N671     N        0.07441    0.43294    0.84528    1.000
    Si672    Si       0.99361    0.44189    0.82493    1.000
    N673     N        0.99534    0.46939    0.75852    1.000
    Si674    Si       0.04782    0.42605    0.76953    1.000
    N675     N        0.19046    0.45555    0.80248    1.000
    Si676    Si       0.16558    0.46446    0.76419    1.000
    N677     N        0.13016    0.43390    0.81209    1.000
    Si678    Si       0.16729    0.43210    0.83533    1.000
    Si679    Si       0.21975    0.42338    0.80092    1.000
    N680     N        0.14645    0.42933    0.74603    1.000
    N681     N        0.03257    0.44020    0.97634    1.000
    Si682    Si       0.06897    0.45265    0.88276    1.000
    N683     N        0.10433    0.44944    0.96497    1.000
    N684     N        0.10791    0.46825    0.89994    1.000
    Si685    Si       0.06443    0.46738    0.97055    1.000
    N686     N        0.05260    0.42443    0.90975    1.000
    Si687    Si       0.02077    0.42176    0.93784    1.000
    N688     N        0.21776    0.42332    0.98226    1.000
    Si689    Si       0.14481    0.44469    0.90846    1.000
    Si690    Si       0.21368    0.45528    0.88708    1.000
    N691     N        0.16886    0.46239    0.94302    1.000
    Si692    Si       0.20766    0.46028    0.96340    1.000
    N693     N        0.22975    0.46596    0.92772    1.000
    N694     N        0.17302    0.44572    0.87458    1.000
    Si695    Si       0.13845    0.47857    0.96888    1.000
    N696     N        0.08908    0.50219    0.06473    1.000
    Si697    Si       0.04718    0.49444    0.04961    1.000
    N698     N        0.02027    0.53113    0.05515    1.000
    N699     N        0.06728    0.48273    0.01109    1.000
    Si700    Si       0.10493    0.53427    0.08558    1.000
    N701     N        0.99493    0.49269    0.00016    1.000
    N702     N        0.17351    0.50357    0.06536    1.000
    Si703    Si       0.19361    0.49748    0.10352    1.000
    N704     N        0.23021    0.51542    0.08948    1.000
    Si705    Si       0.22334    0.52647    0.00095    1.000
    N706     N        0.20356    0.48777    0.99960    1.000
    N707     N        0.03532    0.52825    0.12901    1.000
    N708     N        0.10726    0.52432    0.12852    1.000
    N709     N        0.06590    0.51539    0.18865    1.000
    N710     N        0.99924    0.49204    0.18084    1.000
    Si711    Si       0.10113    0.52286    0.21587    1.000
    Si712    Si       0.99678    0.51242    0.14241    1.000
    Si713    Si       0.03894    0.48303    0.19511    1.000
    N714     N        0.13198    0.50091    0.19475    1.000
    Si715    Si       0.14003    0.52520    0.15823    1.000
    N716     N        0.17586    0.51037    0.14126    1.000
    Si717    Si       0.20249    0.49913    0.17693    1.000
    N718     N        0.03499    0.50723    0.29542    1.000
    N719     N        0.08852    0.51962    0.25674    1.000
    Si720    Si       0.01660    0.48355    0.32685    1.000
    Si721    Si       0.06247    0.48685    0.26776    1.000
    N722     N        0.02876    0.49566    0.36752    1.000
    N723     N        0.11991    0.50938    0.33527    1.000
    N724     N        0.20711    0.49281    0.30070    1.000
    N725     N        0.18745    0.52546    0.35746    1.000
    Si726    Si       0.20252    0.53095    0.31837    1.000
    Si727    Si       0.14594    0.53138    0.36144    1.000
    Si728    Si       0.09597    0.51891    0.41387    1.000
    Si729    Si       0.09748    0.50138    0.48806    1.000
    N730     N        0.01726    0.48609    0.43671    1.000
    N731     N        0.10285    0.53249    0.45516    1.000
    N732     N        0.05388    0.49970    0.49465    1.000
    Si733    Si       0.20733    0.52256    0.39457    1.000
    Si734    Si       0.16280    0.48586    0.42604    1.000
    N735     N        0.13795    0.51377    0.40395    1.000
    N736     N        0.16559    0.48595    0.46891    1.000
    N737     N        0.20090    0.48163    0.40734    1.000
    N738     N        0.02800    0.50578    0.56821    1.000
    Si739    Si       0.02391    0.51327    0.52465    1.000
    N740     N        0.09677    0.50824    0.58717    1.000
    Si741    Si       0.00936    0.53221    0.60104    1.000
    Si742    Si       0.10556    0.53362    0.55241    1.000
    Si743    Si       0.06156    0.50343    0.61521    1.000
    N744     N        0.99837    0.48042    0.51184    1.000
    N745     N        0.12401    0.51470    0.51820    1.000
    N746     N        0.22602    0.49699    0.59194    1.000
    Si747    Si       0.16487    0.50290    0.50814    1.000
    N748     N        0.24056    0.49887    0.51946    1.000
    Si749    Si       0.12292    0.49915    0.62085    1.000
    Si750    Si       0.21932    0.47811    0.55230    1.000
    Si751    Si       0.10126    0.48420    0.68727    1.000
    Si752    Si       0.99955    0.50394    0.67454    1.000
    N753     N        0.02250    0.50436    0.63725    1.000
    N754     N        0.08992    0.49620    0.64856    1.000
    N755     N        0.02834    0.49710    0.70560    1.000
    N756     N        0.09041    0.51105    0.71977    1.000
    Si757    Si       0.05244    0.52867    0.72390    1.000
    N758     N        0.19529    0.48165    0.73596    1.000
    Si759    Si       0.16976    0.52173    0.66616    1.000
    N760     N        0.15352    0.52907    0.62520    1.000
    N761     N        0.19800    0.48831    0.66174    1.000
    N762     N        0.14316    0.50132    0.69035    1.000
    Si763    Si       0.13373    0.51790    0.73098    1.000
    N764     N        0.10542    0.49814    0.83023    1.000
    Si765    Si       0.07604    0.52094    0.85457    1.000
    N766     N        0.03760    0.52786    0.76565    1.000
    Si767    Si       0.02632    0.49037    0.78283    1.000
    Si768    Si       0.00688    0.49053    0.86381    1.000
    N769     N        0.00631    0.48653    0.82022    1.000
    N770     N        0.04982    0.49209    0.87038    1.000
    Si771    Si       0.13194    0.52115    0.80589    1.000
    N772     N        0.14001    0.49876    0.76975    1.000
    Si773    Si       0.20283    0.49406    0.82010    1.000
    N774     N        0.16898    0.52283    0.82852    1.000
    N775     N        0.23251    0.50935    0.79355    1.000
    Si776    Si       0.22774    0.50740    0.74900    1.000
    N777     N        0.22747    0.48312    0.85435    1.000
    N778     N        0.05779    0.49839    0.94314    1.000
    Si779    Si       0.09526    0.50339    0.91999    1.000
    N780     N        0.09764    0.53580    0.88896    1.000
    N781     N        0.12411    0.51520    0.95032    1.000
    N782     N        0.07222    0.56478    0.08838    1.000
    Si783    Si       0.03290    0.55074    0.09253    1.000
    N784     N        0.00372    0.58159    0.09523    1.000
    Si785    Si       0.01904    0.56350    0.02479    1.000
    N786     N        0.18640    0.57319    0.09040    1.000
    N787     N        0.13232    0.55364    0.05659    1.000
    N788     N        0.19790    0.55443    0.02283    1.000
    Si789    Si       0.12453    0.58579    0.03100    1.000
    Si790    Si       0.22843    0.56098    0.10005    1.000
    Si791    Si       0.17467    0.54500    0.05742    1.000
    Si792    Si       0.19866    0.59585    0.00711    1.000
    N793     N        0.08012    0.57806    0.16405    1.000
    N794     N        0.11112    0.56555    0.22479    1.000
    N795     N        0.01084    0.59631    0.18338    1.000
    Si796    Si       0.07124    0.53612    0.15072    1.000
    Si797    Si       0.14749    0.58844    0.21299    1.000
    N798     N        0.15191    0.56707    0.17202    1.000
    Si799    Si       0.19858    0.57494    0.16638    1.000
    N800     N        0.23244    0.56161    0.14124    1.000
    Si801    Si       0.11898    0.59546    0.15769    1.000
    Si802    Si       0.23974    0.53887    0.22491    1.000
    N803     N        0.20571    0.53493    0.20008    1.000
    N804     N        0.01058    0.55729    0.33783    1.000
    Si805    Si       0.09180    0.56435    0.26502    1.000
    N806     N        0.04853    0.57600    0.27099    1.000
    Si807    Si       0.02155    0.54850    0.29215    1.000
    N808     N        0.10982    0.59267    0.29265    1.000
    Si809    Si       0.03219    0.53977    0.37174    1.000
    N810     N        0.17306    0.55429    0.29977    1.000
    Si811    Si       0.15451    0.58989    0.29282    1.000
    N812     N        0.13732    0.57384    0.36266    1.000
    N813     N        0.23492    0.56896    0.25489    1.000
    Si814    Si       0.99568    0.58763    0.41478    1.000
    Si815    Si       0.09887    0.58065    0.37871    1.000
    N816     N        0.00028    0.54623    0.40313    1.000
    Si817    Si       0.10793    0.57593    0.46113    1.000
    N818     N        0.07410    0.54581    0.38663    1.000
    N819     N        0.06886    0.59301    0.47093    1.000
    N820     N        0.10920    0.59344    0.42073    1.000
    Si821    Si       0.20550    0.58997    0.42390    1.000
    N822     N        0.13833    0.59081    0.48946    1.000
    N823     N        0.19337    0.54895    0.42552    1.000
    N824     N        0.07074    0.55747    0.54048    1.000
    Si825    Si       0.05023    0.57627    0.57287    1.000
    Si826    Si       0.05127    0.57600    0.50566    1.000
    N827     N        0.01237    0.55170    0.50817    1.000
    N828     N        0.00416    0.57171    0.57780    1.000
    Si829    Si       0.99851    0.58120    0.53574    1.000
    N830     N        0.05139    0.55127    0.61249    1.000
    Si831    Si       0.15029    0.56741    0.60339    1.000
    Si832    Si       0.15827    0.57237    0.52363    1.000
    N833     N        0.19108    0.58403    0.60475    1.000
    N834     N        0.13938    0.55818    0.56127    1.000
    Si835    Si       0.21164    0.59224    0.56940    1.000
    Si836    Si       0.22769    0.53999    0.51978    1.000
    N837     N        0.18587    0.54052    0.51154    1.000
    N838     N        0.23506    0.55406    0.56073    1.000
    Si839    Si       0.99413    0.57148    0.70548    1.000
    N840     N        0.04071    0.56604    0.70458    1.000
    Si841    Si       0.05262    0.59284    0.63271    1.000
    N842     N        0.19319    0.55867    0.67303    1.000
    N843     N        0.15200    0.55542    0.72952    1.000
    Si844    Si       0.21496    0.57991    0.64220    1.000
    N845     N        0.22232    0.54839    0.73638    1.000
    Si846    Si       0.18877    0.57007    0.71492    1.000
    Si847    Si       0.08050    0.57803    0.80393    1.000
    Si848    Si       0.02396    0.57575    0.84978    1.000
    Si849    Si       0.01808    0.56469    0.77828    1.000
    N850     N        0.05909    0.55424    0.83246    1.000
    N851     N        0.99632    0.57110    0.81492    1.000
    N852     N        0.05050    0.59447    0.77766    1.000
    N853     N        0.11611    0.55739    0.78902    1.000
    N854     N        0.22236    0.55852    0.83540    1.000
    Si855    Si       0.18426    0.55638    0.85068    1.000
    Si856    Si       0.13149    0.58407    0.75629    1.000
    N857     N        0.16099    0.59418    0.84547    1.000
    N858     N        0.07653    0.56371    0.94411    1.000
    Si859    Si       0.07392    0.57220    0.90193    1.000
    Si860    Si       0.07460    0.58590    0.98256    1.000
    N861     N        0.03579    0.56110    0.88902    1.000
    Si862    Si       0.99396    0.55042    0.90134    1.000
    N863     N        0.04792    0.55269    0.99525    1.000
    N864     N        0.11742    0.57868    0.98918    1.000
    Si865    Si       0.04308    0.53788    0.95624    1.000
    N866     N        0.00111    0.54225    0.94485    1.000
    N867     N        0.18939    0.59590    0.96317    1.000
    N868     N        0.22791    0.54175    0.95932    1.000
    Si869    Si       0.11891    0.55748    0.94955    1.000
    Si870    Si       0.20460    0.56887    0.93384    1.000
    N871     N        0.13625    0.59042    0.92731    1.000
    N872     N        0.18434    0.56303    0.89521    1.000
    Si873    Si       0.15680    0.59788    0.88930    1.000
    N874     N        0.05367    0.63121    0.09646    1.000
    Si875    Si       0.01763    0.61820    0.07807    1.000
    Si876    Si       0.08850    0.60468    0.08866    1.000
    N877     N        0.02466    0.60425    0.03500    1.000
    N878     N        0.10431    0.61944    0.05072    1.000
    Si879    Si       0.02257    0.63078    0.00092    1.000
    N880     N        0.98798    0.64735    0.07491    1.000
    Si881    Si       0.16587    0.61093    0.10595    1.000
    N882     N        0.15944    0.61298    0.01868    1.000
    N883     N        0.16455    0.64553    0.07832    1.000
    N884     N        0.23450    0.62000    0.01719    1.000
    N885     N        0.12367    0.60556    0.11667    1.000
    Si886    Si       0.14068    0.64490    0.04287    1.000
    N887     N        0.06112    0.62340    0.22225    1.000
    Si888    Si       0.05268    0.60507    0.18355    1.000
    N889     N        0.05868    0.64246    0.16409    1.000
    Si890    Si       0.20991    0.60251    0.24160    1.000
    Si891    Si       0.21125    0.63833    0.17221    1.000
    N892     N        0.13195    0.62283    0.19147    1.000
    N893     N        0.19184    0.61330    0.13926    1.000
    N894     N        0.21100    0.60281    0.19779    1.000
    N895     N        0.05720    0.64156    0.29100    1.000
    Si896    Si       0.03951    0.61773    0.26038    1.000
    Si897    Si       0.08930    0.62475    0.31515    1.000
    N898     N        0.07501    0.60943    0.35537    1.000
    N899     N        0.99616    0.62447    0.25397    1.000
    N900     N        0.16956    0.62215    0.31925    1.000
    Si901    Si       0.16100    0.61012    0.36232    1.000
    N902     N        0.21780    0.64253    0.25621    1.000
    N903     N        0.22754    0.65383    0.34834    1.000
    N904     N        0.16647    0.59763    0.25089    1.000
    Si905    Si       0.05367    0.63146    0.38335    1.000
    N906     N        0.03243    0.60657    0.41110    1.000
    Si907    Si       0.05200    0.62323    0.44598    1.000
    N908     N        0.02438    0.64693    0.47278    1.000
    N909     N        0.07602    0.65235    0.41795    1.000
    N910     N        0.13426    0.64194    0.37712    1.000
    N911     N        0.19668    0.61191    0.46099    1.000
    Si912    Si       0.21542    0.64978    0.38836    1.000
    N913     N        0.19535    0.61161    0.38897    1.000
    Si914    Si       0.16045    0.62960    0.47816    1.000
    Si915    Si       0.11678    0.63644    0.41686    1.000
    N916     N        0.03215    0.60795    0.53056    1.000
    N917     N        0.06472    0.61028    0.59284    1.000
    Si918    Si       0.10126    0.63316    0.59484    1.000
    Si919    Si       0.03064    0.64963    0.51607    1.000
    N920     N        0.13204    0.60669    0.60785    1.000
    N921     N        0.18422    0.64666    0.58775    1.000
    N922     N        0.18205    0.60371    0.53972    1.000
    Si923    Si       0.16103    0.64138    0.55161    1.000
    N924     N        0.11897    0.65203    0.56081    1.000
    N925     N        0.04237    0.63555    0.72271    1.000
    N926     N        0.01126    0.61211    0.63382    1.000
    N927     N        0.07720    0.60617    0.66461    1.000
    Si928    Si       0.10799    0.63828    0.66239    1.000
    Si929    Si       0.99347    0.64067    0.66322    1.000
    Si930    Si       0.06483    0.60201    0.70766    1.000
    N931     N        0.10034    0.59984    0.73245    1.000
    Si932    Si       0.18741    0.64456    0.68532    1.000
    N933     N        0.19052    0.61355    0.71868    1.000
    N934     N        0.21074    0.62302    0.64981    1.000
    N935     N        0.15135    0.63739    0.66050    1.000
    Si936    Si       0.17177    0.62407    0.62330    1.000
    N937     N        0.03138    0.61851    0.84752    1.000
    Si938    Si       0.04272    0.63538    0.76615    1.000
    Si939    Si       0.07277    0.62799    0.85579    1.000
    N940     N        0.09998    0.60994    0.82695    1.000
    Si941    Si       0.00285    0.64495    0.82845    1.000
    N942     N        0.00688    0.64768    0.78595    1.000
    Si943    Si       0.19894    0.62434    0.76207    1.000
    Si944    Si       0.14259    0.61899    0.81581    1.000
    N945     N        0.16261    0.60615    0.77856    1.000
    N946     N        0.05987    0.62636    0.97803    1.000
    N947     N        0.08325    0.61305    0.89491    1.000
    Si948    Si       0.11397    0.63673    0.91595    1.000
    N949     N        0.12320    0.64172    0.95854    1.000
    Si950    Si       0.14739    0.60785    0.97124    1.000
    N951     N        0.14866    0.64163    0.88869    1.000
    N952     N        0.01408    0.67100    0.01456    1.000
    N953     N        0.09901    0.69367    0.05792    1.000
    Si954    Si       0.10713    0.70180    0.01607    1.000
    Si955    Si       0.19369    0.67703    0.08055    1.000
    N956     N        0.14305    0.67789    0.01498    1.000
    N957     N        0.20022    0.69475    0.04035    1.000
    Si958    Si       0.18034    0.69438    0.00231    1.000
    N959     N        0.17717    0.70969    0.10453    1.000
    N960     N        0.23033    0.65187    0.08501    1.000
    N961     N        0.08280    0.69750    0.12928    1.000
    Si962    Si       0.05419    0.66474    0.12616    1.000
    Si963    Si       0.07131    0.66299    0.20424    1.000
    N964     N        0.01135    0.68368    0.13173    1.000
    N965     N        0.03900    0.69360    0.20470    1.000
    Si966    Si       0.00499    0.68993    0.17645    1.000
    N967     N        0.10829    0.68508    0.19578    1.000
    Si968    Si       0.10125    0.71531    0.16494    1.000
    Si969    Si       0.14679    0.66332    0.19651    1.000
    Si970    Si       0.18135    0.70873    0.14852    1.000
    Si971    Si       0.12619    0.70614    0.23492    1.000
    N972     N        0.18126    0.67011    0.17125    1.000
    N973     N        0.16004    0.67850    0.23499    1.000
    N974     N        0.23002    0.70559    0.23386    1.000
    Si975    Si       0.07495    0.68384    0.29290    1.000
    N976     N        0.03775    0.70388    0.30478    1.000
    Si977    Si       0.00845    0.68224    0.33056    1.000
    N978     N        0.10491    0.66535    0.31805    1.000
    N979     N        0.08667    0.70013    0.25280    1.000
    N980     N        0.02610    0.65889    0.36343    1.000
    N981     N        0.99222    0.71263    0.35677    1.000
    Si982    Si       0.19875    0.68124    0.25147    1.000
    N983     N        0.20764    0.69390    0.29410    1.000
    Si984    Si       0.12706    0.67783    0.35410    1.000
    N985     N        0.16667    0.68827    0.34172    1.000
    Si986    Si       0.19315    0.65876    0.32082    1.000
    N987     N        0.10442    0.70855    0.44731    1.000
    Si988    Si       0.07924    0.69588    0.41539    1.000
    Si989    Si       0.00664    0.68918    0.39164    1.000
    N990     N        0.10453    0.70537    0.37805    1.000
    N991     N        0.03776    0.70792    0.41674    1.000
    N992     N        0.99211    0.69991    0.47342    1.000
    N993     N        0.20263    0.68472    0.41157    1.000
    Si994    Si       0.14988    0.70110    0.44271    1.000
    N995     N        0.17163    0.71415    0.47632    1.000
    N996     N        0.14328    0.65540    0.44525    1.000
    Si997    Si       0.09626    0.68849    0.55215    1.000
    Si998    Si       0.02082    0.69204    0.56222    1.000
    N999     N        0.05574    0.67622    0.54282    1.000
    N1000    N        0.00828    0.68599    0.60408    1.000
    N1001    N        0.11227    0.71002    0.51729    1.000
    N1002    N        0.99240    0.66667    0.53414    1.000
    N1003    N        0.22912    0.67568    0.54311    1.000
    Si1004   Si       0.15324    0.70016    0.51291    1.000
    Si1005   Si       0.22697    0.65728    0.58288    1.000
    N1006    N        0.16135    0.65727    0.51017    1.000
    N1007    N        0.04813    0.71347    0.72302    1.000
    Si1008   Si       0.09452    0.70542    0.62672    1.000
    N1009    N        0.09555    0.66075    0.62692    1.000
    N1010    N        0.02004    0.67418    0.67203    1.000
    N1011    N        0.09564    0.66830    0.69346    1.000
    Si1012   Si       0.05287    0.67337    0.70161    1.000
    Si1013   Si       0.01681    0.70729    0.64089    1.000
    N1014    N        0.16935    0.68335    0.70329    1.000
    Si1015   Si       0.20623    0.70963    0.70142    1.000
    Si1016   Si       0.12849    0.69883    0.69813    1.000
    N1017    N        0.22800    0.66867    0.68956    1.000
    Si1018   Si       0.09496    0.67600    0.81189    1.000
    N1019    N        0.08028    0.66848    0.85318    1.000
    N1020    N        0.00218    0.68407    0.84594    1.000
    N1021    N        0.07283    0.66165    0.77996    1.000
    N1022    N        0.18965    0.68759    0.84303    1.000
    Si1023   Si       0.17217    0.68430    0.80274    1.000
    N1024    N        0.20250    0.66448    0.77643    1.000
    N1025    N        0.13639    0.66274    0.80841    1.000
    Si1026   Si       0.22334    0.71375    0.83685    1.000
    Si1027   Si       0.08530    0.69851    0.88391    1.000
    N1028    N        0.01599    0.67734    0.94808    1.000
    N1029    N        0.08934    0.67356    0.92072    1.000
    Si1030   Si       0.03204    0.69889    0.98704    1.000
    N1031    N        0.07405    0.69207    0.99130    1.000
    Si1032   Si       0.08327    0.66105    0.96230    1.000
    Si1033   Si       0.20418    0.69093    0.93370    1.000
    N1034    N        0.20883    0.65539    0.90584    1.000
    N1035    N        0.17327    0.71095    0.90740    1.000
    Si1036   Si       0.17598    0.67207    0.88122    1.000
    N1037    N        0.20624    0.67039    0.97379    1.000
    N1038    N        0.04762    0.73349    0.08529    1.000
    Si1039   Si       0.00942    0.72023    0.10260    1.000
    N1040    N        0.05217    0.75906    0.01872    1.000
    Si1041   Si       0.08729    0.71645    0.09095    1.000
    Si1042   Si       0.03688    0.76759    0.05870    1.000
    Si1043   Si       0.09146    0.77178    0.00467    1.000
    N1044    N        0.11786    0.75166    0.08925    1.000
    Si1045   Si       0.16017    0.74935    0.09114    1.000
    N1046    N        0.12089    0.74046    0.99964    1.000
    N1047    N        0.17280    0.76922    0.05294    1.000
    N1048    N        0.23599    0.74854    0.01755    1.000
    N1049    N        0.08100    0.74634    0.18938    1.000
    Si1050   Si       0.06234    0.72708    0.22381    1.000
    N1051    N        0.13851    0.74648    0.23041    1.000
    Si1052   Si       0.14193    0.76172    0.18662    1.000
    Si1053   Si       0.21661    0.76870    0.17023    1.000
    N1054    N        0.21780    0.72595    0.16593    1.000
    N1055    N        0.14271    0.72573    0.16208    1.000
    Si1056   Si       0.05020    0.74554    0.29405    1.000
    N1057    N        0.09406    0.73645    0.30601    1.000
    N1058    N        0.04682    0.75671    0.25152    1.000
    N1059    N        0.02411    0.76836    0.32244    1.000
    Si1060   Si       0.98706    0.75174    0.33722    1.000
    N1061    N        0.17384    0.75151    0.30624    1.000
    N1062    N        0.21743    0.73368    0.35975    1.000
    Si1063   Si       0.13095    0.76021    0.30975    1.000
    Si1064   Si       0.19358    0.71936    0.32546    1.000
    N1065    N        0.13247    0.77272    0.35297    1.000
    Si1066   Si       0.09253    0.73278    0.48239    1.000
    N1067    N        0.04949    0.73625    0.48092    1.000
    Si1068   Si       0.01838    0.72474    0.45165    1.000
    Si1069   Si       0.20931    0.73654    0.47437    1.000
    Si1070   Si       0.12241    0.74570    0.38555    1.000
    Si1071   Si       0.19809    0.72666    0.39815    1.000
    N1072    N        0.21534    0.74640    0.43160    1.000
    N1073    N        0.15564    0.72677    0.40612    1.000
    Si1074   Si       0.03184    0.75429    0.51471    1.000
    N1075    N        0.00860    0.72673    0.53814    1.000
    N1076    N        0.10673    0.71524    0.58591    1.000
    N1077    N        0.22971    0.74069    0.51820    1.000
    Si1078   Si       0.13890    0.74173    0.57219    1.000
    N1079    N        0.22488    0.73039    0.59022    1.000
    N1080    N        0.15926    0.75454    0.61038    1.000
    Si1081   Si       0.20048    0.76532    0.60035    1.000
    N1082    N        0.16994    0.71672    0.55008    1.000
    Si1083   Si       0.21312    0.71580    0.55220    1.000
    Si1084   Si       0.07953    0.74397    0.72694    1.000
    Si1085   Si       0.06587    0.76061    0.65339    1.000
    N1086    N        0.05657    0.72233    0.63709    1.000
    N1087    N        0.00851    0.76618    0.73494    1.000
    N1088    N        0.07619    0.77003    0.69364    1.000
    Si1089   Si       0.23141    0.75936    0.73223    1.000
    Si1090   Si       0.20413    0.77284    0.66825    1.000
    N1091    N        0.12484    0.71909    0.65837    1.000
    N1092    N        0.21226    0.72940    0.66119    1.000
    N1093    N        0.18945    0.74095    0.73080    1.000
    N1094    N        0.11872    0.72600    0.73046    1.000
    Si1095   Si       0.13884    0.75937    0.64927    1.000
    Si1096   Si       0.05465    0.74386    0.79920    1.000
    N1097    N        0.01948    0.72339    0.78837    1.000
    N1098    N        0.08854    0.71976    0.80930    1.000
    N1099    N        0.06890    0.76992    0.76473    1.000
    Si1100   Si       0.01231    0.72622    0.74478    1.000
    N1101    N        0.04513    0.77034    0.83440    1.000
    N1102    N        0.15441    0.72523    0.79580    1.000
    Si1103   Si       0.12546    0.73658    0.82697    1.000
    N1104    N        0.21111    0.75584    0.83255    1.000
    Si1105   Si       0.15273    0.74136    0.75356    1.000
    N1106    N        0.11937    0.72283    0.87060    1.000
    Si1107   Si       0.05035    0.76343    0.87960    1.000
    N1108    N        0.02484    0.73484    0.96249    1.000
    N1109    N        0.04919    0.72189    0.89303    1.000
    Si1110   Si       0.01971    0.71331    0.92544    1.000
    N1111    N        0.13269    0.76115    0.93465    1.000
    N1112    N        0.18630    0.73044    0.97699    1.000
    Si1113   Si       0.23091    0.74582    0.97100    1.000
    N1114    N        0.23529    0.72059    0.93315    1.000
    Si1115   Si       0.14648    0.74297    0.89791    1.000
    Si1116   Si       0.15194    0.75677    0.97421    1.000
    N1117    N        0.05890    0.79774    0.08089    1.000
    Si1118   Si       0.10136    0.78921    0.07916    1.000
    N1119    N        0.99764    0.78791    0.05530    1.000
    N1120    N        0.10824    0.79449    0.03664    1.000
    Si1121   Si       0.04700    0.82085    0.11309    1.000
    N1122    N        0.00269    0.82575    0.11606    1.000
    N1123    N        0.12383    0.82038    0.10012    1.000
    N1124    N        0.21960    0.81531    0.02388    1.000
    Si1125   Si       0.21192    0.79883    0.10690    1.000
    Si1126   Si       0.14997    0.80052    0.03176    1.000
    N1127    N        0.17609    0.77846    0.11917    1.000
    N1128    N        0.23460    0.77580    0.07795    1.000
    Si1129   Si       0.21336    0.77520    0.04046    1.000
    N1130    N        0.05026    0.80601    0.15333    1.000
    Si1131   Si       0.07709    0.78858    0.18081    1.000
    N1132    N        0.08037    0.81097    0.21861    1.000
    Si1133   Si       0.01087    0.82216    0.16035    1.000
    N1134    N        0.01730    0.82507    0.23427    1.000
    Si1135   Si       0.17713    0.82672    0.19116    1.000
    N1136    N        0.14728    0.82584    0.22174    1.000
    N1137    N        0.17865    0.78338    0.18559    1.000
    Si1138   Si       0.14648    0.80727    0.13582    1.000
    Si1139   Si       0.22717    0.80416    0.23168    1.000
    N1140    N        0.11759    0.79232    0.16399    1.000
    Si1141   Si       0.04175    0.80698    0.32827    1.000
    N1142    N        0.06127    0.81545    0.28925    1.000
    N1143    N        0.06985    0.80298    0.36203    1.000
    Si1144   Si       0.10471    0.82814    0.28745    1.000
    Si1145   Si       0.04965    0.80169    0.25027    1.000
    Si1146   Si       0.11349    0.80981    0.36111    1.000
    N1147    N        0.19474    0.79006    0.25724    1.000
    N1148    N        0.12671    0.79232    0.28026    1.000
    N1149    N        0.22863    0.79203    0.32836    1.000
    Si1150   Si       0.21181    0.77167    0.29256    1.000
    Si1151   Si       0.15279    0.78674    0.24618    1.000
    Si1152   Si       0.05428    0.81816    0.39841    1.000
    Si1153   Si       0.10034    0.79868    0.44775    1.000
    N1154    N        0.06315    0.82093    0.44128    1.000
    N1155    N        0.01402    0.80660    0.39971    1.000
    N1156    N        0.10553    0.77189    0.41475    1.000
    N1157    N        0.10551    0.77538    0.48457    1.000
    Si1158   Si       0.16749    0.81477    0.48067    1.000
    N1159    N        0.13640    0.82471    0.45087    1.000
    N1160    N        0.18851    0.77903    0.48757    1.000
    N1161    N        0.07179    0.82031    0.59062    1.000
    Si1162   Si       0.05329    0.81392    0.55195    1.000
    N1163    N        0.01220    0.81780    0.55754    1.000
    Si1164   Si       0.10812    0.79887    0.52170    1.000
    Si1165   Si       0.99176    0.81804    0.52041    1.000
    Si1166   Si       0.10862    0.79968    0.59738    1.000
    N1167    N        0.99856    0.77943    0.50029    1.000
    N1168    N        0.06270    0.77291    0.53774    1.000
    Si1169   Si       0.21176    0.77950    0.52596    1.000
    N1170    N        0.19390    0.78705    0.56356    1.000
    Si1171   Si       0.16066    0.81500    0.56014    1.000
    N1172    N        0.14742    0.82275    0.51892    1.000
    N1173    N        0.12433    0.78028    0.55864    1.000
    N1174    N        0.13970    0.82978    0.59562    1.000
    N1175    N        0.03421    0.78395    0.63709    1.000
    Si1176   Si       0.07780    0.81325    0.69423    1.000
    Si1177   Si       0.05153    0.82217    0.62722    1.000
    N1178    N        0.04907    0.82665    0.72467    1.000
    Si1179   Si       0.99058    0.77763    0.64239    1.000
    N1180    N        0.10288    0.77925    0.63589    1.000
    N1181    N        0.22788    0.78903    0.69975    1.000
    Si1182   Si       0.15426    0.80721    0.71626    1.000
    N1183    N        0.11956    0.82740    0.70228    1.000
    N1184    N        0.21540    0.78910    0.63094    1.000
    N1185    N        0.16229    0.78091    0.67982    1.000
    Si1186   Si       0.03160    0.81230    0.82992    1.000
    Si1187   Si       0.10196    0.80674    0.85206    1.000
    Si1188   Si       0.03403    0.79694    0.75345    1.000
    N1189    N        0.01866    0.81711    0.78846    1.000
    Si1190   Si       0.10900    0.79114    0.78019    1.000
    N1191    N        0.99816    0.82954    0.85414    1.000
    N1192    N        0.06989    0.83207    0.83668    1.000
    N1193    N        0.11602    0.78018    0.82081    1.000
    Si1194   Si       0.20198    0.78580    0.86203    1.000
    N1195    N        0.14186    0.78408    0.75246    1.000
    N1196    N        0.20047    0.82661    0.84431    1.000
    N1197    N        0.13531    0.83253    0.86156    1.000
    N1198    N        0.01028    0.80871    0.98359    1.000
    N1199    N        0.08668    0.78634    0.88902    1.000
    Si1200   Si       0.10140    0.79067    0.92881    1.000
    N1201    N        0.07653    0.78505    0.96442    1.000
    N1202    N        0.01114    0.77936    0.89158    1.000
    Si1203   Si       0.99556    0.81839    0.89682    1.000
    Si1204   Si       0.03699    0.77301    0.97965    1.000
    N1205    N        0.22565    0.79121    0.96197    1.000
    N1206    N        0.16456    0.77689    0.88053    1.000
    Si1207   Si       0.15434    0.81656    0.89908    1.000
    N1208    N        0.23167    0.77874    0.89133    1.000
    N1209    N        0.12462    0.82682    0.92960    1.000
    Si1210   Si       0.22826    0.81059    0.92040    1.000
    N1211    N        0.16403    0.79390    0.99003    1.000
    Si1212   Si       0.20079    0.81711    0.98423    1.000
    N1213    N        0.09888    0.87810    0.05495    1.000
    Si1214   Si       0.10495    0.85966    0.09292    1.000
    N1215    N        0.06592    0.85860    0.11125    1.000
    Si1216   Si       0.19872    0.84761    0.04999    1.000
    Si1217   Si       0.13339    0.87514    0.03015    1.000
    N1218    N        0.22908    0.87731    0.03858    1.000
    N1219    N        0.20143    0.83715    0.09191    1.000
    Si1220   Si       0.17583    0.86471    0.11286    1.000
    N1221    N        0.15749    0.84138    0.03900    1.000
    N1222    N        0.13323    0.88273    0.11640    1.000
    Si1223   Si       0.02556    0.86738    0.21754    1.000
    N1224    N        0.01546    0.86150    0.17589    1.000
    N1225    N        0.10620    0.87317    0.18865    1.000
    Si1226   Si       0.10846    0.84467    0.22098    1.000
    N1227    N        0.05752    0.89177    0.22872    1.000
    Si1228   Si       0.13781    0.87566    0.16133    1.000
    N1229    N        0.21642    0.83587    0.20634    1.000
    N1230    N        0.16550    0.84394    0.15356    1.000
    N1231    N        0.10517    0.86147    0.26123    1.000
    N1232    N        0.01118    0.83704    0.33806    1.000
    Si1233   Si       0.14996    0.86157    0.34668    1.000
    N1234    N        0.19066    0.85434    0.35709    1.000
    N1235    N        0.22295    0.86042    0.29729    1.000
    Si1236   Si       0.22472    0.83564    0.33177    1.000
    N1237    N        0.11912    0.83920    0.32637    1.000
    Si1238   Si       0.01189    0.86418    0.37215    1.000
    N1239    N        0.01329    0.87253    0.43607    1.000
    Si1240   Si       0.03982    0.85086    0.46447    1.000
    N1241    N        0.05236    0.86243    0.38629    1.000
    N1242    N        0.06693    0.88136    0.48085    1.000
    N1243    N        0.10691    0.88677    0.42759    1.000
    N1244    N        0.01034    0.84182    0.49335    1.000
    N1245    N        0.13008    0.84321    0.38566    1.000
    Si1246   Si       0.20441    0.86450    0.39831    1.000
    Si1247   Si       0.13962    0.85858    0.42321    1.000
    N1248    N        0.17712    0.87869    0.42951    1.000
    N1249    N        0.19613    0.84554    0.48670    1.000
    N1250    N        0.22498    0.83094    0.41421    1.000
    Si1251   Si       0.08761    0.87413    0.51774    1.000
    Si1252   Si       0.99202    0.83229    0.59469    1.000
    N1253    N        0.08073    0.83200    0.52350    1.000
    Si1254   Si       0.15563    0.86844    0.60596    1.000
    Si1255   Si       0.16957    0.86699    0.51809    1.000
    N1256    N        0.18155    0.85718    0.55772    1.000
    Si1257   Si       0.21925    0.87113    0.57379    1.000
    N1258    N        0.19766    0.88853    0.61124    1.000
    N1259    N        0.12994    0.88682    0.52417    1.000
    N1260    N        0.02049    0.85404    0.61822    1.000
    Si1261   Si       0.03222    0.86705    0.72016    1.000
    N1262    N        0.01999    0.88229    0.68313    1.000
    N1263    N        0.07467    0.83958    0.66022    1.000
    N1264    N        0.99760    0.86978    0.74669    1.000
    N1265    N        0.18809    0.83476    0.72957    1.000
    N1266    N        0.15254    0.86182    0.65044    1.000
    Si1267   Si       0.19263    0.87713    0.65366    1.000
    Si1268   Si       0.11457    0.85655    0.67030    1.000
    N1269    N        0.22221    0.84788    0.66116    1.000
    Si1270   Si       0.22183    0.83219    0.70433    1.000
    Si1271   Si       0.07008    0.87500    0.82953    1.000
    Si1272   Si       0.00671    0.85914    0.78661    1.000
    N1273    N        0.04018    0.88349    0.79953    1.000
    N1274    N        0.10055    0.83285    0.77589    1.000
    N1275    N        0.22531    0.85033    0.78800    1.000
    Si1276   Si       0.12007    0.86948    0.78197    1.000
    Si1277   Si       0.16545    0.85398    0.83902    1.000
    N1278    N        0.15940    0.85930    0.79610    1.000
    Si1279   Si       0.19124    0.86123    0.76550    1.000
    N1280    N        0.02114    0.84739    0.91544    1.000
    Si1281   Si       0.02617    0.84378    0.96161    1.000
    N1282    N        0.06909    0.85701    0.95945    1.000
    N1283    N        0.01436    0.88224    0.98075    1.000
    Si1284   Si       0.02134    0.88199    0.89064    1.000
    Si1285   Si       0.11082    0.86717    0.94567    1.000
    N1286    N        0.06040    0.88746    0.86977    1.000
    N1287    N        0.12130    0.88438    0.98850    1.000
    N1288    N        0.19217    0.83444    0.91266    1.000
    N1289    N        0.17385    0.88422    0.87044    1.000
    Si1290   Si       0.18633    0.87741    0.91071    1.000
    N1291    N        0.19454    0.85814    0.98206    1.000
    N1292    N        0.07317    0.92729    0.09702    1.000
    N1293    N        0.03060    0.90981    0.04457    1.000
    Si1294   Si       0.07375    0.91517    0.05608    1.000
    Si1295   Si       0.99666    0.90534    0.06951    1.000
    N1296    N        0.09882    0.94310    0.03385    1.000
    Si1297   Si       0.02092    0.91937    0.00258    1.000
    N1298    N        0.00801    0.89758    0.11050    1.000
    Si1299   Si       0.18234    0.92940    0.06271    1.000
    Si1300   Si       0.22456    0.92370    0.10978    1.000
    N1301    N        0.18684    0.90519    0.10175    1.000
    N1302    N        0.22325    0.93994    0.06737    1.000
    N1303    N        0.16398    0.90503    0.03237    1.000
    Si1304   Si       0.14836    0.92414    0.11979    1.000
    Si1305   Si       0.22464    0.88736    0.99628    1.000
    Si1306   Si       0.05118    0.89960    0.12088    1.000
    Si1307   Si       0.02401    0.95051    0.15982    1.000
    Si1308   Si       0.07915    0.90667    0.19465    1.000
    N1309    N        0.05307    0.91619    0.16104    1.000
    N1310    N        0.09948    0.94498    0.20385    1.000
    Si1311   Si       0.99131    0.93359    0.21111    1.000
    N1312    N        0.99201    0.89527    0.22786    1.000
    Si1313   Si       0.23304    0.92111    0.23382    1.000
    N1314    N        0.21368    0.90573    0.19779    1.000
    N1315    N        0.15646    0.91575    0.16279    1.000
    Si1316   Si       0.19435    0.93493    0.17629    1.000
    Si1317   Si       0.13293    0.95100    0.17903    1.000
    N1318    N        0.00643    0.90438    0.35392    1.000
    N1319    N        0.05417    0.90965    0.29621    1.000
    Si1320   Si       0.01445    0.90545    0.31296    1.000
    N1321    N        0.09054    0.91426    0.36141    1.000
    Si1322   Si       0.08119    0.89682    0.26558    1.000
    N1323    N        0.11339    0.92811    0.26734    1.000
    N1324    N        0.00409    0.94711    0.30348    1.000
    N1325    N        0.15775    0.89942    0.31866    1.000
    N1326    N        0.21965    0.92561    0.32873    1.000
    Si1327   Si       0.13928    0.93418    0.30200    1.000
    N1328    N        0.20596    0.91536    0.26575    1.000
    Si1329   Si       0.19983    0.89687    0.30334    1.000
    N1330    N        0.05725    0.92388    0.42672    1.000
    Si1331   Si       0.08766    0.90968    0.45714    1.000
    N1332    N        0.00655    0.92495    0.48005    1.000
    Si1333   Si       0.01425    0.91371    0.43904    1.000
    Si1334   Si       0.07670    0.89504    0.39653    1.000
    N1335    N        0.11081    0.93495    0.48098    1.000
    N1336    N        0.23128    0.89920    0.39558    1.000
    Si1337   Si       0.20024    0.89559    0.46104    1.000
    N1338    N        0.20671    0.93628    0.44461    1.000
    N1339    N        0.01017    0.92416    0.57555    1.000
    Si1340   Si       0.05247    0.91833    0.58255    1.000
    N1341    N        0.07459    0.89588    0.55267    1.000
    Si1342   Si       0.11406    0.91513    0.56097    1.000
    Si1343   Si       0.22768    0.91027    0.51932    1.000
    Si1344   Si       0.21023    0.92937    0.60472    1.000
    N1345    N        0.22155    0.91857    0.56241    1.000
    Si1346   Si       0.14914    0.93268    0.50657    1.000
    N1347    N        0.12543    0.90145    0.60173    1.000
    N1348    N        0.14310    0.94416    0.54735    1.000
    N1349    N        0.18625    0.90684    0.50319    1.000
    N1350    N        0.06240    0.91164    0.62606    1.000
    Si1351   Si       0.09482    0.91171    0.71742    1.000
    Si1352   Si       0.10508    0.91753    0.63674    1.000
    N1353    N        0.05707    0.89755    0.73535    1.000
    N1354    N        0.10524    0.89836    0.67741    1.000
    Si1355   Si       0.02914    0.89040    0.64081    1.000
    Si1356   Si       0.15787    0.92514    0.74446    1.000
    N1357    N        0.15870    0.94345    0.70708    1.000
    N1358    N        0.21127    0.90821    0.67297    1.000
    Si1359   Si       0.19938    0.94471    0.69290    1.000
    Si1360   Si       0.04651    0.91655    0.77307    1.000
    N1361    N        0.00818    0.93682    0.77310    1.000
    N1362    N        0.07650    0.94790    0.78510    1.000
    N1363    N        0.05125    0.95042    0.85956    1.000
    N1364    N        0.10430    0.89432    0.81406    1.000
    Si1365   Si       0.11706    0.93686    0.81028    1.000
    N1366    N        0.15832    0.93251    0.82552    1.000
    Si1367   Si       0.22983    0.93152    0.75751    1.000
    N1368    N        0.19583    0.90404    0.75297    1.000
    Si1369   Si       0.16983    0.92831    0.86754    1.000
    N1370    N        0.12541    0.89632    0.74617    1.000
    N1371    N        0.09244    0.90469    0.92753    1.000
    N1372    N        0.06131    0.92533    0.98362    1.000
    Si1373   Si       0.06849    0.92527    0.89266    1.000
    N1374    N        0.03203    0.91635    0.91732    1.000
    Si1375   Si       0.05243    0.89739    0.95106    1.000
    Si1376   Si       0.10477    0.92636    0.99585    1.000
    N1377    N        0.13328    0.94846    0.97107    1.000
    N1378    N        0.15319    0.89022    0.93592    1.000
    Si1379   Si       0.23311    0.94198    0.90190    1.000
    N1380    N        0.22493    0.90068    0.91105    1.000
    N1381    N        0.19840    0.91754    0.97710    1.000
    Si1382   Si       0.12795    0.92845    0.93210    1.000
    Si1383   Si       0.16468    0.89174    0.97823    1.000
    N1384    N        0.14027    0.94367    0.89369    1.000
    N1385    N        0.09524    0.99370    0.08642    1.000
    Si1386   Si       0.10131    0.98559    0.04145    1.000
    Si1387   Si       0.08209    0.96513    0.11732    1.000
    N1388    N        0.99246    0.94880    0.99777    1.000
    N1389    N        0.06749    0.00916    0.03148    1.000
    Si1390   Si       0.13656    0.98910    0.10910    1.000
    N1391    N        0.15427    0.95548    0.08457    1.000
    N1392    N        0.13381    0.00443    0.02059    1.000
    N1393    N        0.19634    0.98549    0.99878    1.000
    Si1394   Si       0.01481    0.00388    0.12392    1.000
    N1395    N        0.04819    0.97973    0.13730    1.000
    Si1396   Si       0.03692    0.99181    0.22908    1.000
    N1397    N        0.02539    0.96070    0.20203    1.000
    N1398    N        0.16995    0.96685    0.19369    1.000
    N1399    N        0.21732    0.95125    0.14393    1.000
    Si1400   Si       0.23102    0.99275    0.14916    1.000
    Si1401   Si       0.17508    0.00740    0.20469    1.000
    N1402    N        0.12128    0.95965    0.13686    1.000
    N1403    N        0.05451    0.97451    0.33885    1.000
    N1404    N        0.05887    0.97417    0.26210    1.000
    Si1405   Si       0.09129    0.95697    0.35723    1.000
    Si1406   Si       0.04735    0.95614    0.30028    1.000
    Si1407   Si       0.03961    0.00853    0.36502    1.000
    Si1408   Si       0.09766    0.96109    0.24360    1.000
    Si1409   Si       0.15044    0.99837    0.33763    1.000
    Si1410   Si       0.20679    0.96376    0.30929    1.000
    N1411    N        0.12509    0.96262    0.33237    1.000
    N1412    N        0.19133    0.98628    0.34154    1.000
    N1413    N        0.16682    0.96417    0.28738    1.000
    Si1414   Si       0.15724    0.00454    0.27264    1.000
    N1415    N        0.12112    0.99734    0.24771    1.000
    Si1416   Si       0.23095    0.99534    0.24338    1.000
    N1417    N        0.23872    0.98292    0.28576    1.000
    N1418    N        0.02869    0.99177    0.40337    1.000
    N1419    N        0.09638    0.97115    0.39660    1.000
    N1420    N        0.06231    0.97630    0.46282    1.000
    Si1421   Si       0.06035    0.96822    0.42124    1.000
    Si1422   Si       0.02731    0.96353    0.48532    1.000
    Si1423   Si       0.10624    0.97871    0.47768    1.000
    N1424    N        0.99364    0.98470    0.46701    1.000
    N1425    N        0.21296    0.00270    0.47081    1.000
    N1426    N        0.16136    0.97142    0.48563    1.000
    Si1427   Si       0.13499    0.99196    0.40718    1.000
    N1428    N        0.17623    0.98279    0.41115    1.000
    Si1429   Si       0.20826    0.98989    0.38087    1.000
    N1430    N        0.12004    0.00680    0.44620    1.000
    Si1431   Si       0.18706    0.97331    0.45184    1.000
    N1432    N        0.03146    0.97099    0.52630    1.000
    Si1433   Si       0.06906    0.98490    0.54677    1.000
    Si1434   Si       0.00060    0.96434    0.55915    1.000
    Si1435   Si       0.09728    0.97763    0.61277    1.000
    N1436    N        0.08056    0.95509    0.57774    1.000
    N1437    N        0.00068    0.99432    0.59013    1.000
    N1438    N        0.09847    0.99698    0.51657    1.000
    Si1439   Si       0.15948    0.97657    0.56941    1.000
    N1440    N        0.12824    0.00202    0.59122    1.000
    N1441    N        0.17906    0.95762    0.60235    1.000
    N1442    N        0.18409    0.00018    0.54438    1.000
    Si1443   Si       0.18135    0.00647    0.50142    1.000
    N1444    N        0.09587    0.95468    0.71769    1.000
    N1445    N        0.06274    0.99317    0.63093    1.000
    Si1446   Si       0.12633    0.96895    0.69023    1.000
    N1447    N        0.12230    0.95952    0.64591    1.000
    N1448    N        0.19417    0.97473    0.66451    1.000
    Si1449   Si       0.16106    0.97763    0.63656    1.000
    N1450    N        0.23343    0.95429    0.71921    1.000
    Si1451   Si       0.06421    0.97414    0.82388    1.000
    N1452    N        0.00827    0.98681    0.82914    1.000
    Si1453   Si       0.10316    0.97089    0.75732    1.000
    N1454    N        0.10615    0.96895    0.83741    1.000
    N1455    N        0.21638    0.96076    0.78696    1.000
    N1456    N        0.17939    0.00161    0.82012    1.000
    Si1457   Si       0.17485    0.96307    0.79997    1.000
    Si1458   Si       0.20396    0.99618    0.85726    1.000
    N1459    N        0.14172    0.95606    0.77237    1.000
    Si1460   Si       0.01472    0.97102    0.86951    1.000
    N1461    N        0.08525    0.96692    0.91278    1.000
    N1462    N        0.03105    0.00066    0.96676    1.000
    Si1463   Si       0.05571    0.99704    0.92969    1.000
    Si1464   Si       0.99272    0.99004    0.98336    1.000
    N1465    N        0.02822    0.00274    0.89850    1.000
    N1466    N        0.23286    0.96662    0.93719    1.000
    Si1467   Si       0.11474    0.97505    0.87967    1.000
    Si1468   Si       0.15468    0.98412    0.98663    1.000
    Si1469   Si       0.21955    0.95517    0.97559    1.000
    N1470    N        0.20395    0.95531    0.87302    1.000
    N1471    N        0.31848    0.03833    0.02626    1.000
    Si1472   Si       0.26088    0.01773    0.08198    1.000
    N1473    N        0.35502    0.05906    0.08975    1.000
    N1474    N        0.24182    0.04693    0.00963    1.000
    N1475    N        0.27058    0.06046    0.07995    1.000
    Si1476   Si       0.28535    0.04433    0.99599    1.000
    N1477    N        0.42280    0.03807    0.06826    1.000
    Si1478   Si       0.38420    0.02440    0.08353    1.000
    Si1479   Si       0.34113    0.01791    0.22432    1.000
    N1480    N        0.25056    0.02986    0.22845    1.000
    N1481    N        0.32103    0.03842    0.14600    1.000
    N1482    N        0.31240    0.04975    0.21113    1.000
    Si1483   Si       0.35922    0.05486    0.13428    1.000
    Si1484   Si       0.30012    0.06640    0.17318    1.000
    Si1485   Si       0.28511    0.04765    0.24494    1.000
    N1486    N        0.47194    0.01037    0.22984    1.000
    Si1487   Si       0.47618    0.02301    0.18948    1.000
    N1488    N        0.41972    0.06255    0.22527    1.000
    Si1489   Si       0.40250    0.04861    0.18902    1.000
    N1490    N        0.43758    0.02700    0.17196    1.000
    N1491    N        0.38589    0.01667    0.12710    1.000
    N1492    N        0.37277    0.01609    0.19434    1.000
    Si1493   Si       0.33268    0.04618    0.29285    1.000
    N1494    N        0.29618    0.02343    0.27970    1.000
    N1495    N        0.32564    0.04970    0.33686    1.000
    N1496    N        0.35796    0.02677    0.26348    1.000
    Si1497   Si       0.36155    0.03097    0.35389    1.000
    Si1498   Si       0.47108    0.04630    0.32499    1.000
    N1499    N        0.45454    0.05748    0.28612    1.000
    Si1500   Si       0.44237    0.03438    0.25087    1.000
    N1501    N        0.39011    0.06214    0.35425    1.000
    Si1502   Si       0.23907    0.02978    0.49020    1.000
    Si1503   Si       0.32258    0.02595    0.41798    1.000
    N1504    N        0.34468    0.02903    0.45646    1.000
    N1505    N        0.29651    0.06046    0.40343    1.000
    N1506    N        0.25821    0.05957    0.46737    1.000
    N1507    N        0.35304    0.00984    0.39003    1.000
    Si1508   Si       0.43744    0.04575    0.45234    1.000
    N1509    N        0.43884    0.02032    0.41593    1.000
    Si1510   Si       0.46609    0.04881    0.39755    1.000
    N1511    N        0.44116    0.01556    0.48541    1.000
    N1512    N        0.40229    0.06945    0.45953    1.000
    Si1513   Si       0.27369    0.03295    0.56100    1.000
    N1514    N        0.33951    0.02503    0.52594    1.000
    N1515    N        0.26421    0.01365    0.52075    1.000
    Si1516   Si       0.36884    0.02380    0.55747    1.000
    N1517    N        0.46371    0.03194    0.59901    1.000
    Si1518   Si       0.42946    0.04515    0.57805    1.000
    N1519    N        0.41072    0.01663    0.55064    1.000
    N1520    N        0.40435    0.04003    0.61486    1.000
    N1521    N        0.30944    0.06064    0.68242    1.000
    Si1522   Si       0.30933    0.01726    0.67825    1.000
    N1523    N        0.34969    0.01234    0.66331    1.000
    Si1524   Si       0.38108    0.01011    0.69255    1.000
    N1525    N        0.45540    0.05112    0.73295    1.000
    N1526    N        0.37431    0.04759    0.71497    1.000
    Si1527   Si       0.45607    0.02332    0.70109    1.000
    Si1528   Si       0.44554    0.02439    0.63844    1.000
    N1529    N        0.47567    0.04315    0.66666    1.000
    N1530    N        0.42116    0.01228    0.67619    1.000
    Si1531   Si       0.37572    0.00861    0.62628    1.000
    N1532    N        0.27852    0.05593    0.84788    1.000
    N1533    N        0.29343    0.05553    0.78085    1.000
    Si1534   Si       0.30079    0.01716    0.76184    1.000
    Si1535   Si       0.25964    0.05821    0.81059    1.000
    N1536    N        0.34525    0.01396    0.76636    1.000
    Si1537   Si       0.27853    0.01486    0.86337    1.000
    Si1538   Si       0.35664    0.01216    0.85557    1.000
    N1539    N        0.36548    0.05784    0.84938    1.000
    Si1540   Si       0.37263    0.04651    0.75961    1.000
    Si1541   Si       0.44774    0.03286    0.77064    1.000
    N1542    N        0.40835    0.04550    0.78555    1.000
    Si1543   Si       0.47620    0.03541    0.83635    1.000
    N1544    N        0.48244    0.04303    0.79333    1.000
    N1545    N        0.44160    0.06264    0.84321    1.000
    Si1546   Si       0.40162    0.06733    0.82575    1.000
    N1547    N        0.26717    0.01659    0.90480    1.000
    N1548    N        0.35825    0.02440    0.89935    1.000
    N1549    N        0.28635    0.01112    0.96936    1.000
    Si1550   Si       0.35484    0.06654    0.89076    1.000
    N1551    N        0.40925    0.03185    0.95045    1.000
    Si1552   Si       0.37583    0.00938    0.93366    1.000
    Si1553   Si       0.47476    0.05728    0.91123    1.000
    N1554    N        0.46120    0.01629    0.90772    1.000
    N1555    N        0.31612    0.10642    0.04347    1.000
    Si1556   Si       0.27973    0.10097    0.07032    1.000
    Si1557   Si       0.28816    0.11548    0.01015    1.000
    N1558    N        0.25382    0.11292    0.03866    1.000
    Si1559   Si       0.34246    0.06970    0.04771    1.000
    N1560    N        0.37711    0.09688    0.03542    1.000
    N1561    N        0.44122    0.08482    0.01380    1.000
    Si1562   Si       0.40979    0.11321    0.00886    1.000
    N1563    N        0.43927    0.11627    0.07084    1.000
    Si1564   Si       0.44391    0.07410    0.05612    1.000
    N1565    N        0.48699    0.06653    0.06284    1.000
    N1566    N        0.31108    0.10497    0.15938    1.000
    N1567    N        0.25485    0.07295    0.16828    1.000
    N1568    N        0.47654    0.10238    0.12538    1.000
    N1569    N        0.38582    0.07746    0.15966    1.000
    Si1570   Si       0.39342    0.12034    0.15920    1.000
    Si1571   Si       0.42106    0.10677    0.22723    1.000
    N1572    N        0.34043    0.08804    0.28377    1.000
    N1573    N        0.26301    0.08281    0.34910    1.000
    Si1574   Si       0.30698    0.11380    0.27364    1.000
    Si1575   Si       0.30387    0.07750    0.36427    1.000
    N1576    N        0.27630    0.08759    0.25862    1.000
    Si1577   Si       0.25532    0.11814    0.32615    1.000
    N1578    N        0.32646    0.11479    0.36726    1.000
    Si1579   Si       0.23900    0.10580    0.25182    1.000
    Si1580   Si       0.37835    0.10922    0.28598    1.000
    Si1581   Si       0.42125    0.09038    0.34889    1.000
    Si1582   Si       0.45540    0.10067    0.28758    1.000
    N1583    N        0.41638    0.10825    0.30894    1.000
    N1584    N        0.45689    0.06841    0.36008    1.000
    N1585    N        0.45585    0.12009    0.24880    1.000
    N1586    N        0.38584    0.12306    0.24653    1.000
    Si1587   Si       0.26688    0.07927    0.42815    1.000
    Si1588   Si       0.25017    0.10141    0.48243    1.000
    N1589    N        0.34882    0.09934    0.42866    1.000
    N1590    N        0.27472    0.11760    0.45017    1.000
    Si1591   Si       0.35946    0.07015    0.45862    1.000
    N1592    N        0.47228    0.06872    0.43654    1.000
    N1593    N        0.46530    0.11143    0.49239    1.000
    Si1594   Si       0.29192    0.10048    0.58470    1.000
    N1595    N        0.35118    0.08738    0.49919    1.000
    N1596    N        0.29724    0.06975    0.55480    1.000
    N1597    N        0.32650    0.12432    0.59419    1.000
    Si1598   Si       0.33409    0.06795    0.53356    1.000
    N1599    N        0.26035    0.12802    0.58150    1.000
    N1600    N        0.43664    0.08167    0.55431    1.000
    Si1601   Si       0.46645    0.10902    0.53578    1.000
    N1602    N        0.39991    0.11455    0.60346    1.000
    Si1603   Si       0.37803    0.07576    0.60715    1.000
    Si1604   Si       0.40849    0.11884    0.56292    1.000
    N1605    N        0.36556    0.06662    0.56621    1.000
    N1606    N        0.28013    0.07986    0.62010    1.000
    N1607    N        0.35768    0.08484    0.64313    1.000
    N1608    N        0.29318    0.10998    0.73339    1.000
    Si1609   Si       0.28206    0.08720    0.66381    1.000
    N1610    N        0.35527    0.11698    0.69903    1.000
    N1611    N        0.24437    0.09345    0.68463    1.000
    Si1612   Si       0.24918    0.10855    0.72557    1.000
    Si1613   Si       0.35159    0.07260    0.68858    1.000
    Si1614   Si       0.33779    0.12464    0.63750    1.000
    N1615    N        0.47926    0.11301    0.69424    1.000
    Si1616   Si       0.48087    0.08639    0.72933    1.000
    N1617    N        0.41376    0.11738    0.74150    1.000
    Si1618   Si       0.31093    0.09486    0.77278    1.000
    N1619    N        0.35277    0.08440    0.76690    1.000
    N1620    N        0.24680    0.09919    0.80261    1.000
    N1621    N        0.26899    0.12608    0.86260    1.000
    N1622    N        0.39699    0.10749    0.80768    1.000
    Si1623   Si       0.45806    0.10281    0.85226    1.000
    Si1624   Si       0.38067    0.11667    0.76807    1.000
    N1625    N        0.48430    0.11571    0.76496    1.000
    Si1626   Si       0.27965    0.08595    0.87916    1.000
    Si1627   Si       0.30517    0.10478    0.94151    1.000
    N1628    N        0.31530    0.08258    0.90499    1.000
    N1629    N        0.29393    0.08543    0.98010    1.000
    N1630    N        0.24937    0.07922    0.90770    1.000
    Si1631   Si       0.41461    0.07466    0.94443    1.000
    N1632    N        0.40064    0.11203    0.96466    1.000
    Si1633   Si       0.47242    0.08510    0.98419    1.000
    Si1634   Si       0.37564    0.12259    0.93087    1.000
    N1635    N        0.48078    0.09706    0.88992    1.000
    N1636    N        0.45624    0.07874    0.94497    1.000
    N1637    N        0.38573    0.08521    0.91256    1.000
    Si1638   Si       0.48520    0.11951    0.92928    1.000
    Si1639   Si       0.30884    0.16581    0.09179    1.000
    N1640    N        0.35046    0.15306    0.07833    1.000
    Si1641   Si       0.35096    0.13172    0.03989    1.000
    N1642    N        0.28732    0.12960    0.10178    1.000
    N1643    N        0.29826    0.15572    0.99925    1.000
    N1644    N        0.36629    0.15615    0.00875    1.000
    N1645    N        0.43306    0.15203    0.00846    1.000
    Si1646   Si       0.45277    0.15352    0.04992    1.000
    Si1647   Si       0.38639    0.16917    0.09794    1.000
    N1648    N        0.47317    0.16619    0.08772    1.000
    N1649    N        0.41105    0.17596    0.06225    1.000
    Si1650   Si       0.40038    0.18029    0.02039    1.000
    Si1651   Si       0.45246    0.13637    0.11397    1.000
    N1652    N        0.28268    0.15535    0.17736    1.000
    Si1653   Si       0.32343    0.14701    0.16295    1.000
    Si1654   Si       0.28548    0.16175    0.22199    1.000
    N1655    N        0.24716    0.14612    0.23780    1.000
    N1656    N        0.32642    0.17798    0.13161    1.000
    N1657    N        0.31800    0.13885    0.23885    1.000
    Si1658   Si       0.35910    0.14923    0.22423    1.000
    N1659    N        0.36108    0.14190    0.18139    1.000
    Si1660   Si       0.27458    0.12487    0.14276    1.000
    Si1661   Si       0.44247    0.16804    0.18194    1.000
    N1662    N        0.40829    0.14370    0.12494    1.000
    Si1663   Si       0.48524    0.14677    0.23396    1.000
    N1664    N        0.46955    0.16427    0.14839    1.000
    N1665    N        0.42661    0.12739    0.18949    1.000
    N1666    N        0.47329    0.18109    0.20982    1.000
    Si1667   Si       0.32691    0.14375    0.33475    1.000
    N1668    N        0.29248    0.13485    0.30971    1.000
    N1669    N        0.33248    0.18473    0.34903    1.000
    N1670    N        0.36478    0.14230    0.31368    1.000
    Si1671   Si       0.40485    0.14735    0.32657    1.000
    N1672    N        0.41499    0.13106    0.36673    1.000
    N1673    N        0.47761    0.17819    0.32484    1.000
    Si1674   Si       0.27635    0.16055    0.43811    1.000
    N1675    N        0.30830    0.16576    0.41005    1.000
    N1676    N        0.34108    0.15637    0.48141    1.000
    Si1677   Si       0.34115    0.13319    0.40444    1.000
    Si1678   Si       0.41875    0.15899    0.39956    1.000
    N1679    N        0.45193    0.17875    0.49075    1.000
    Si1680   Si       0.43989    0.14032    0.47370    1.000
    N1681    N        0.44738    0.14364    0.42995    1.000
    Si1682   Si       0.37421    0.16876    0.45695    1.000
    N1683    N        0.37599    0.15963    0.41488    1.000
    N1684    N        0.39931    0.13980    0.48082    1.000
    N1685    N        0.30461    0.15649    0.53740    1.000
    Si1686   Si       0.26227    0.15232    0.54365    1.000
    Si1687   Si       0.33913    0.15328    0.56535    1.000
    Si1688   Si       0.31137    0.18104    0.50063    1.000
    N1689    N        0.24063    0.12489    0.51651    1.000
    Si1690   Si       0.36346    0.12850    0.50248    1.000
    N1691    N        0.37408    0.13738    0.54353    1.000
    Si1692   Si       0.46221    0.17040    0.58145    1.000
    N1693    N        0.44132    0.14367    0.55114    1.000
    N1694    N        0.43317    0.17340    0.61398    1.000
    N1695    N        0.30046    0.13017    0.66151    1.000
    Si1696   Si       0.27353    0.16613    0.65134    1.000
    N1697    N        0.31865    0.17275    0.71396    1.000
    Si1698   Si       0.31598    0.13235    0.70501    1.000
    Si1699   Si       0.40516    0.14623    0.63237    1.000
    Si1700   Si       0.45991    0.15468    0.68640    1.000
    Si1701   Si       0.39357    0.13492    0.70530    1.000
    N1702    N        0.36458    0.16155    0.63607    1.000
    N1703    N        0.45917    0.16787    0.72901    1.000
    N1704    N        0.42025    0.13655    0.67083    1.000
    N1705    N        0.38715    0.17681    0.71298    1.000
    Si1706   Si       0.33646    0.16219    0.80682    1.000
    N1707    N        0.26124    0.16833    0.80376    1.000
    Si1708   Si       0.27002    0.12993    0.82030    1.000
    N1709    N        0.35831    0.15552    0.76868    1.000
    N1710    N        0.31177    0.12491    0.80699    1.000
    N1711    N        0.36795    0.16206    0.83874    1.000
    Si1712   Si       0.44764    0.13819    0.75996    1.000
    Si1713   Si       0.40729    0.14604    0.82618    1.000
    N1714    N        0.43321    0.16219    0.79500    1.000
    N1715    N        0.43111    0.13570    0.85941    1.000
    Si1716   Si       0.33648    0.16216    0.97782    1.000
    Si1717   Si       0.27789    0.15544    0.89390    1.000
    N1718    N        0.31796    0.16754    0.88647    1.000
    N1719    N        0.33896    0.13041    0.94962    1.000
    Si1720   Si       0.35798    0.17584    0.87921    1.000
    N1721    N        0.27261    0.13345    0.93158    1.000
    Si1722   Si       0.45630    0.15975    0.97270    1.000
    N1723    N        0.45230    0.14911    0.92869    1.000
    Si1724   Si       0.42718    0.16053    0.89564    1.000
    N1725    N        0.38532    0.15649    0.90556    1.000
    Si1726   Si       0.25300    0.22075    0.07658    1.000
    N1727    N        0.28660    0.22521    0.99923    1.000
    N1728    N        0.28300    0.18837    0.06382    1.000
    Si1729   Si       0.27566    0.18716    0.02009    1.000
    N1730    N        0.45999    0.21716    0.03588    1.000
    N1731    N        0.40343    0.21648    0.99801    1.000
    N1732    N        0.45225    0.23650    0.10646    1.000
    N1733    N        0.38279    0.21049    0.11728    1.000
    Si1734   Si       0.44454    0.22828    0.99840    1.000
    Si1735   Si       0.47652    0.24004    0.06790    1.000
    N1736    N        0.29610    0.20119    0.23398    1.000
    Si1737   Si       0.34404    0.21695    0.13456    1.000
    N1738    N        0.35376    0.23400    0.17435    1.000
    Si1739   Si       0.48195    0.21782    0.22930    1.000
    Si1740   Si       0.38709    0.21826    0.19900    1.000
    N1741    N        0.36632    0.19226    0.22748    1.000
    N1742    N        0.41610    0.20160    0.17234    1.000
    Si1743   Si       0.41880    0.22719    0.13420    1.000
    N1744    N        0.34807    0.21945    0.28995    1.000
    Si1745   Si       0.25164    0.21989    0.32846    1.000
    N1746    N        0.26831    0.20189    0.36352    1.000
    N1747    N        0.25346    0.20393    0.28680    1.000
    Si1748   Si       0.33516    0.21481    0.24850    1.000
    Si1749   Si       0.26030    0.21871    0.24834    1.000
    Si1750   Si       0.36766    0.20194    0.32443    1.000
    Si1751   Si       0.44890    0.20852    0.30752    1.000
    N1752    N        0.46222    0.21439    0.26781    1.000
    N1753    N        0.38177    0.23278    0.35534    1.000
    N1754    N        0.40961    0.18816    0.31499    1.000
    N1755    N        0.45119    0.23687    0.33823    1.000
    Si1756   Si       0.48039    0.18903    0.36793    1.000
    Si1757   Si       0.42223    0.23218    0.37011    1.000
    Si1758   Si       0.25947    0.22506    0.47116    1.000
    Si1759   Si       0.30793    0.19945    0.38067    1.000
    N1760    N        0.32372    0.23771    0.39364    1.000
    N1761    N        0.27913    0.18637    0.47224    1.000
    N1762    N        0.26439    0.24427    0.43369    1.000
    N1763    N        0.44232    0.24162    0.46358    1.000
    N1764    N        0.44015    0.19411    0.38442    1.000
    Si1765   Si       0.40337    0.23687    0.48548    1.000
    Si1766   Si       0.47119    0.21192    0.47130    1.000
    N1767    N        0.38284    0.21072    0.45862    1.000
    N1768    N        0.32976    0.21586    0.51834    1.000
    N1769    N        0.35280    0.19253    0.58133    1.000
    N1770    N        0.26428    0.23970    0.51299    1.000
    Si1771   Si       0.36428    0.21615    0.54580    1.000
    N1772    N        0.46203    0.20496    0.55359    1.000
    N1773    N        0.40090    0.21268    0.52195    1.000
    Si1774   Si       0.43256    0.18350    0.52878    1.000
    N1775    N        0.48602    0.21830    0.62323    1.000
    Si1776   Si       0.34775    0.20076    0.62688    1.000
    N1777    N        0.30058    0.19623    0.63390    1.000
    Si1778   Si       0.29003    0.20718    0.70669    1.000
    N1779    N        0.33691    0.22850    0.73825    1.000
    N1780    N        0.30329    0.23910    0.68330    1.000
    Si1781   Si       0.30039    0.24034    0.64001    1.000
    N1782    N        0.25867    0.18351    0.68774    1.000
    Si1783   Si       0.35298    0.18725    0.73823    1.000
    Si1784   Si       0.40506    0.20558    0.69154    1.000
    N1785    N        0.44498    0.19757    0.67618    1.000
    N1786    N        0.37757    0.21811    0.66166    1.000
    Si1787   Si       0.45758    0.21280    0.72664    1.000
    N1788    N        0.41945    0.23748    0.71731    1.000
    Si1789   Si       0.44308    0.21141    0.63341    1.000
    Si1790   Si       0.28114    0.20206    0.78690    1.000
    N1791    N        0.32327    0.20213    0.79685    1.000
    N1792    N        0.25738    0.23476    0.79842    1.000
    N1793    N        0.28779    0.23482    0.85713    1.000
    Si1794   Si       0.33883    0.24034    0.78062    1.000
    N1795    N        0.27154    0.21070    0.74543    1.000
    N1796    N        0.48109    0.20469    0.83360    1.000
    N1797    N        0.42648    0.23134    0.82499    1.000
    Si1798   Si       0.45056    0.20130    0.80202    1.000
    N1799    N        0.46051    0.22501    0.76837    1.000
    Si1800   Si       0.45654    0.22721    0.85928    1.000
    Si1801   Si       0.24851    0.22757    0.87657    1.000
    N1802    N        0.34121    0.20151    0.96089    1.000
    Si1803   Si       0.31293    0.23643    0.96533    1.000
    N1804    N        0.36164    0.21973    0.88149    1.000
    Si1805   Si       0.32287    0.24107    0.88446    1.000
    N1806    N        0.24835    0.18655    0.89327    1.000
    Si1807   Si       0.40148    0.22814    0.89803    1.000
    Si1808   Si       0.37378    0.22890    0.97031    1.000
    N1809    N        0.46547    0.20164    0.97137    1.000
    N1810    N        0.43371    0.20287    0.88775    1.000
    Si1811   Si       0.28917    0.27076    0.10418    1.000
    Si1812   Si       0.27067    0.25521    0.02612    1.000
    N1813    N        0.28482    0.25066    0.06667    1.000
    N1814    N        0.28507    0.29526    0.02019    1.000
    N1815    N        0.48430    0.27969    0.05418    1.000
    Si1816   Si       0.33049    0.27076    0.16607    1.000
    N1817    N        0.30218    0.28922    0.19188    1.000
    Si1818   Si       0.29692    0.28083    0.23505    1.000
    N1819    N        0.31509    0.24900    0.12989    1.000
    N1820    N        0.26621    0.29846    0.13369    1.000
    N1821    N        0.33534    0.26079    0.24527    1.000
    Si1822   Si       0.45870    0.27565    0.12736    1.000
    Si1823   Si       0.37225    0.28206    0.23744    1.000
    Si1824   Si       0.43659    0.27283    0.19662    1.000
    N1825    N        0.42826    0.26476    0.15504    1.000
    N1826    N        0.47327    0.25155    0.20335    1.000
    N1827    N        0.40128    0.25411    0.21827    1.000
    N1828    N        0.25728    0.26079    0.32310    1.000
    N1829    N        0.32886    0.27468    0.32762    1.000
    Si1830   Si       0.28594    0.28856    0.33813    1.000
    Si1831   Si       0.34479    0.26440    0.28903    1.000
    N1832    N        0.26051    0.26171    0.25194    1.000
    Si1833   Si       0.34939    0.25987    0.36374    1.000
    N1834    N        0.38088    0.28759    0.28043    1.000
    N1835    N        0.45141    0.28602    0.28466    1.000
    Si1836   Si       0.45621    0.27700    0.32780    1.000
    N1837    N        0.48606    0.30078    0.34717    1.000
    N1838    N        0.28161    0.29066    0.38271    1.000
    Si1839   Si       0.29656    0.26547    0.41405    1.000
    N1840    N        0.32040    0.28865    0.44294    1.000
    N1841    N        0.36207    0.29399    0.38761    1.000
    N1842    N        0.42612    0.26808    0.39549    1.000
    N1843    N        0.39229    0.27851    0.49221    1.000
    Si1844   Si       0.44971    0.26925    0.43290    1.000
    Si1845   Si       0.33665    0.27036    0.58626    1.000
    Si1846   Si       0.26786    0.28195    0.58429    1.000
    N1847    N        0.32249    0.28383    0.51143    1.000
    N1848    N        0.29894    0.25683    0.56848    1.000
    Si1849   Si       0.30316    0.24950    0.52701    1.000
    Si1850   Si       0.36215    0.28782    0.52417    1.000
    N1851    N        0.36361    0.25831    0.55721    1.000
    Si1852   Si       0.43321    0.28458    0.61548    1.000
    N1853    N        0.29586    0.29280    0.73152    1.000
    N1854    N        0.27227    0.27005    0.62816    1.000
    Si1855   Si       0.32324    0.26476    0.71297    1.000
    N1856    N        0.34042    0.24803    0.62410    1.000
    Si1857   Si       0.23891    0.29033    0.64542    1.000
    N1858    N        0.36262    0.28066    0.70501    1.000
    Si1859   Si       0.38097    0.25495    0.64005    1.000
    N1860    N        0.48385    0.28258    0.73692    1.000
    N1861    N        0.41891    0.24356    0.61998    1.000
    Si1862   Si       0.39554    0.26804    0.73504    1.000
    N1863    N        0.47371    0.28909    0.62769    1.000
    N1864    N        0.39680    0.29613    0.64504    1.000
    N1865    N        0.31264    0.27170    0.79343    1.000
    Si1866   Si       0.28174    0.26059    0.82317    1.000
    N1867    N        0.33675    0.27897    0.86513    1.000
    N1868    N        0.27206    0.29980    0.83731    1.000
    Si1869   Si       0.40913    0.26447    0.80469    1.000
    Si1870   Si       0.47416    0.26557    0.77493    1.000
    N1871    N        0.43956    0.28856    0.78566    1.000
    N1872    N        0.37982    0.25447    0.77408    1.000
    Si1873   Si       0.37893    0.28897    0.86766    1.000
    N1874    N        0.39468    0.29793    0.82911    1.000
    Si1875   Si       0.27718    0.28178    0.92003    1.000
    N1876    N        0.25490    0.29257    0.95801    1.000
    N1877    N        0.34518    0.25910    0.98227    1.000
    N1878    N        0.30372    0.24764    0.92412    1.000
    N1879    N        0.24269    0.26774    0.89708    1.000
    N1880    N        0.41491    0.26752    0.88430    1.000
    Si1881   Si       0.45459    0.28680    0.88519    1.000
    N1882    N        0.48122    0.25254    0.88400    1.000
    Si1883   Si       0.40426    0.28759    0.93044    1.000
    N1884    N        0.39586    0.24518    0.93765    1.000
    N1885    N        0.45534    0.27100    0.99698    1.000
    Si1886   Si       0.31230    0.31491    0.04925    1.000
    N1887    N        0.35356    0.31438    0.02908    1.000
    Si1888   Si       0.34326    0.32338    0.11340    1.000
    N1889    N        0.29877    0.35654    0.04898    1.000
    N1890    N        0.31316    0.30500    0.08826    1.000
    N1891    N        0.38254    0.32754    0.09426    1.000
    Si1892   Si       0.38396    0.33312    0.05059    1.000
    Si1893   Si       0.46073    0.31491    0.06302    1.000
    N1894    N        0.42295    0.31502    0.03941    1.000
    N1895    N        0.45003    0.31231    0.10525    1.000
    N1896    N        0.48026    0.35200    0.05070    1.000
    Si1897   Si       0.41884    0.33768    0.11658    1.000
    Si1898   Si       0.42813    0.30515    0.99770    1.000
    N1899    N        0.25556    0.35606    0.17914    1.000
    Si1900   Si       0.26999    0.31405    0.17568    1.000
    N1901    N        0.35073    0.30578    0.15154    1.000
    N1902    N        0.37482    0.32014    0.21868    1.000
    Si1903   Si       0.37157    0.33288    0.17755    1.000
    N1904    N        0.45282    0.31338    0.21128    1.000
    Si1905   Si       0.39668    0.35112    0.23770    1.000
    Si1906   Si       0.44138    0.34722    0.18563    1.000
    N1907    N        0.41050    0.33247    0.15836    1.000
    N1908    N        0.28238    0.33400    0.33965    1.000
    N1909    N        0.29521    0.31972    0.25595    1.000
    N1910    N        0.42369    0.34074    0.27099    1.000
    Si1911   Si       0.46321    0.31461    0.25402    1.000
    Si1912   Si       0.47612    0.34455    0.35282    1.000
    Si1913   Si       0.41450    0.30753    0.29794    1.000
    N1914    N        0.41787    0.29662    0.34007    1.000
    Si1915   Si       0.27809    0.33388    0.38521    1.000
    Si1916   Si       0.34599    0.31657    0.42260    1.000
    N1917    N        0.31678    0.34428    0.40358    1.000
    N1918    N        0.26093    0.31358    0.47874    1.000
    Si1919   Si       0.30457    0.30475    0.47823    1.000
    Si1920   Si       0.27043    0.35436    0.49082    1.000
    N1921    N        0.31353    0.34717    0.49184    1.000
    N1922    N        0.44207    0.30882    0.44734    1.000
    N1923    N        0.37946    0.33076    0.44550    1.000
    N1924    N        0.48454    0.33834    0.39791    1.000
    Si1925   Si       0.40933    0.31407    0.47393    1.000
    N1926    N        0.40520    0.35063    0.38543    1.000
    Si1927   Si       0.40497    0.30318    0.37943    1.000
    Si1928   Si       0.46880    0.34359    0.43879    1.000
    N1929    N        0.27363    0.32366    0.57576    1.000
    Si1930   Si       0.31181    0.34129    0.58586    1.000
    N1931    N        0.34333    0.31221    0.59423    1.000
    Si1932   Si       0.24325    0.35258    0.56146    1.000
    Si1933   Si       0.38038    0.32297    0.61170    1.000
    N1934    N        0.37054    0.33068    0.53009    1.000
    Si1935   Si       0.41032    0.33628    0.54740    1.000
    N1936    N        0.43024    0.33527    0.50891    1.000
    Si1937   Si       0.47110    0.35200    0.51170    1.000
    N1938    N        0.41366    0.31087    0.58433    1.000
    N1939    N        0.48649    0.33199    0.54613    1.000
    Si1940   Si       0.34743    0.35255    0.72673    1.000
    N1941    N        0.24326    0.33378    0.64664    1.000
    N1942    N        0.24466    0.34201    0.72436    1.000
    N1943    N        0.36585    0.34695    0.68994    1.000
    Si1944   Si       0.25435    0.30008    0.72816    1.000
    Si1945   Si       0.38860    0.30933    0.68647    1.000
    Si1946   Si       0.45988    0.31504    0.72529    1.000
    N1947    N        0.47037    0.33144    0.68663    1.000
    N1948    N        0.41656    0.30554    0.71996    1.000
    N1949    N        0.32545    0.34372    0.83931    1.000
    N1950    N        0.27693    0.34099    0.78027    1.000
    N1951    N        0.33942    0.33706    0.76584    1.000
    Si1952   Si       0.25115    0.33133    0.81506    1.000
    Si1953   Si       0.30811    0.31152    0.86089    1.000
    Si1954   Si       0.30695    0.30771    0.77115    1.000
    Si1955   Si       0.43318    0.31835    0.81638    1.000
    N1956    N        0.46252    0.30654    0.84793    1.000
    N1957    N        0.47060    0.34390    0.75581    1.000
    N1958    N        0.30131    0.31409    0.90378    1.000
    Si1959   Si       0.27978    0.31707    0.98372    1.000
    N1960    N        0.32031    0.32059    0.96557    1.000
    Si1961   Si       0.33538    0.32955    0.92504    1.000
    N1962    N        0.25303    0.35203    0.99233    1.000
    Si1963   Si       0.35282    0.30126    0.98873    1.000
    Si1964   Si       0.38825    0.35475    0.90580    1.000
    N1965    N        0.39277    0.30291    0.97117    1.000
    N1966    N        0.45756    0.33735    0.98440    1.000
    N1967    N        0.44412    0.30643    0.92271    1.000
    Si1968   Si       0.45780    0.34313    0.94214    1.000
    N1969    N        0.37492    0.31360    0.90561    1.000
    Si1970   Si       0.27296    0.37904    0.02210    1.000
    Si1971   Si       0.30137    0.37662    0.08692    1.000
    N1972    N        0.26264    0.37114    0.10587    1.000
    N1973    N        0.28882    0.41568    0.01020    1.000
    N1974    N        0.33198    0.36533    0.11538    1.000
    N1975    N        0.38303    0.37685    0.05191    1.000
    N1976    N        0.42704    0.38058    0.10634    1.000
    Si1977   Si       0.39292    0.40106    0.08934    1.000
    Si1978   Si       0.38727    0.41152    0.02650    1.000
    Si1979   Si       0.34508    0.39495    0.14412    1.000
    N1980    N        0.30370    0.38155    0.22372    1.000
    Si1981   Si       0.34683    0.39133    0.21732    1.000
    N1982    N        0.35550    0.37374    0.18019    1.000
    N1983    N        0.42206    0.37535    0.21322    1.000
    N1984    N        0.46326    0.37705    0.16127    1.000
    Si1985   Si       0.45755    0.40335    0.12661    1.000
    Si1986   Si       0.44592    0.40639    0.23213    1.000
    Si1987   Si       0.35466    0.39012    0.29360    1.000
    N1988    N        0.27324    0.40654    0.34404    1.000
    Si1989   Si       0.27831    0.37306    0.31760    1.000
    N1990    N        0.31563    0.37152    0.29538    1.000
    N1991    N        0.25392    0.37598    0.28067    1.000
    Si1992   Si       0.28944    0.36062    0.25842    1.000
    N1993    N        0.33580    0.40801    0.37092    1.000
    N1994    N        0.36668    0.37974    0.25248    1.000
    N1995    N        0.43539    0.41095    0.27485    1.000
    Si1996   Si       0.42426    0.37699    0.29584    1.000
    Si1997   Si       0.40677    0.38151    0.35500    1.000
    N1998    N        0.38658    0.37509    0.31695    1.000
    N1999    N        0.44464    0.36824    0.33440    1.000
    Si2000   Si       0.32941    0.38527    0.40879    1.000
    N2001    N        0.25735    0.37746    0.45730    1.000
    N2002    N        0.29555    0.41061    0.41904    1.000
    Si2003   Si       0.26242    0.41927    0.44333    1.000
    N2004    N        0.44136    0.37743    0.43655    1.000
    Si2005   Si       0.46397    0.41459    0.43413    1.000
    Si2006   Si       0.39989    0.36429    0.42558    1.000
    N2007    N        0.36818    0.39263    0.43142    1.000
    N2008    N        0.25675    0.37587    0.52601    1.000
    N2009    N        0.32849    0.37334    0.56009    1.000
    Si2010   Si       0.32198    0.41513    0.56769    1.000
    N2011    N        0.35785    0.40103    0.50189    1.000
    Si2012   Si       0.34400    0.36339    0.51912    1.000
    Si2013   Si       0.38866    0.39551    0.59395    1.000
    Si2014   Si       0.44285    0.40584    0.55309    1.000
    N2015    N        0.41382    0.37653    0.56368    1.000
    N2016    N        0.46524    0.39489    0.51713    1.000
    N2017    N        0.38172    0.36570    0.62280    1.000
    N2018    N        0.30338    0.36350    0.62130    1.000
    N2019    N        0.34665    0.39735    0.73328    1.000
    Si2020   Si       0.30957    0.40534    0.63774    1.000
    Si2021   Si       0.24928    0.40487    0.69513    1.000
    N2022    N        0.27188    0.39994    0.65895    1.000
    N2023    N        0.27745    0.40053    0.72964    1.000
    N2024    N        0.34596    0.40963    0.65824    1.000
    Si2025   Si       0.26058    0.36883    0.62992    1.000
    N2026    N        0.47264    0.39829    0.70684    1.000
    N2027    N        0.47307    0.38427    0.63771    1.000
    Si2028   Si       0.45738    0.37035    0.67508    1.000
    N2029    N        0.41694    0.38746    0.67882    1.000
    Si2030   Si       0.43069    0.41415    0.71040    1.000
    Si2031   Si       0.37784    0.37949    0.66324    1.000
    N2032    N        0.30803    0.39567    0.80940    1.000
    Si2033   Si       0.29722    0.37708    0.84680    1.000
    Si2034   Si       0.25842    0.36950    0.75545    1.000
    N2035    N        0.25507    0.36734    0.84063    1.000
    Si2036   Si       0.33703    0.36223    0.79957    1.000
    N2037    N        0.43149    0.35998    0.80968    1.000
    N2038    N        0.37249    0.38513    0.79898    1.000
    Si2039   Si       0.44554    0.37550    0.77249    1.000
    Si2040   Si       0.40330    0.38577    0.82826    1.000
    N2041    N        0.47848    0.39945    0.78652    1.000
    Si2042   Si       0.37817    0.40705    0.76228    1.000
    N2043    N        0.41728    0.39485    0.74761    1.000
    N2044    N        0.29847    0.39246    0.88612    1.000
    N2045    N        0.35100    0.36937    0.92454    1.000
    Si2046   Si       0.33173    0.40621    0.91243    1.000
    N2047    N        0.27036    0.40655    0.94553    1.000
    Si2048   Si       0.26837    0.41732    0.90392    1.000
    N2049    N        0.39438    0.37983    0.87085    1.000
    N2050    N        0.39862    0.40939    0.98454    1.000
    N2051    N        0.42211    0.36671    0.93209    1.000
    Si2052   Si       0.42209    0.40786    0.94683    1.000
    Si2053   Si       0.31252    0.43769    0.04077    1.000
    N2054    N        0.35015    0.43505    0.02110    1.000
    N2055    N        0.27104    0.46319    0.11011    1.000
    N2056    N        0.28885    0.47515    0.04168    1.000
    Si2057   Si       0.30762    0.44260    0.11630    1.000
    N2058    N        0.31075    0.41786    0.08072    1.000
    N2059    N        0.33359    0.47956    0.12139    1.000
    N2060    N        0.40595    0.43192    0.06077    1.000
    Si2061   Si       0.42725    0.46694    0.05286    1.000
    N2062    N        0.44900    0.45818    0.01750    1.000
    N2063    N        0.26563    0.44121    0.21130    1.000
    N2064    N        0.33789    0.43175    0.21019    1.000
    Si2065   Si       0.35230    0.47188    0.21010    1.000
    N2066    N        0.30760    0.41870    0.15390    1.000
    Si2067   Si       0.29849    0.41747    0.19619    1.000
    N2068    N        0.45510    0.44458    0.14420    1.000
    Si2069   Si       0.37349    0.46549    0.13379    1.000
    N2070    N        0.44570    0.44472    0.21092    1.000
    N2071    N        0.38275    0.47092    0.17649    1.000
    Si2072   Si       0.47803    0.44971    0.18246    1.000
    N2073    N        0.36902    0.42380    0.12231    1.000
    N2074    N        0.34502    0.43117    0.30558    1.000
    Si2075   Si       0.32175    0.46838    0.30843    1.000
    N2076    N        0.27975    0.46533    0.30280    1.000
    Si2077   Si       0.24995    0.43589    0.32425    1.000
    N2078    N        0.33235    0.47046    0.35214    1.000
    Si2079   Si       0.35949    0.43381    0.34722    1.000
    Si2080   Si       0.24108    0.47736    0.27954    1.000
    Si2081   Si       0.45081    0.45089    0.29215    1.000
    N2082    N        0.46411    0.44958    0.33551    1.000
    N2083    N        0.40044    0.42591    0.35662    1.000
    Si2084   Si       0.43446    0.45113    0.36718    1.000
    N2085    N        0.48482    0.45574    0.26779    1.000
    Si2086   Si       0.29474    0.42875    0.37836    1.000
    N2087    N        0.34179    0.45333    0.46335    1.000
    N2088    N        0.26884    0.46014    0.39253    1.000
    N2089    N        0.26233    0.44040    0.48054    1.000
    N2090    N        0.47145    0.43705    0.47067    1.000
    N2091    N        0.40800    0.43853    0.46735    1.000
    N2092    N        0.44374    0.44343    0.40884    1.000
    Si2093   Si       0.42138    0.46883    0.43941    1.000
    Si2094   Si       0.36997    0.42057    0.46582    1.000
    N2095    N        0.29910    0.43003    0.60272    1.000
    Si2096   Si       0.32875    0.45660    0.50566    1.000
    N2097    N        0.30172    0.43264    0.53384    1.000
    Si2098   Si       0.29612    0.47570    0.61535    1.000
    N2099    N        0.36239    0.42849    0.58036    1.000
    Si2100   Si       0.26251    0.41918    0.52093    1.000
    N2101    N        0.41451    0.42421    0.61455    1.000
    Si2102   Si       0.38637    0.45824    0.55631    1.000
    N2103    N        0.41657    0.43538    0.53685    1.000
    Si2104   Si       0.43387    0.44226    0.49979    1.000
    N2105    N        0.47196    0.42152    0.58059    1.000
    Si2106   Si       0.37972    0.45508    0.61924    1.000
    N2107    N        0.31144    0.45632    0.69776    1.000
    Si2108   Si       0.31394    0.42712    0.73017    1.000
    Si2109   Si       0.34634    0.47021    0.67232    1.000
    Si2110   Si       0.26975    0.47353    0.69340    1.000
    N2111    N        0.33675    0.47208    0.62996    1.000
    N2112    N        0.26741    0.47625    0.64712    1.000
    N2113    N        0.46605    0.45922    0.64450    1.000
    N2114    N        0.43264    0.45698    0.71028    1.000
    Si2115   Si       0.43336    0.47550    0.67044    1.000
    Si2116   Si       0.45637    0.42164    0.62235    1.000
    N2117    N        0.39111    0.46868    0.66017    1.000
    N2118    N        0.25591    0.44556    0.80665    1.000
    N2119    N        0.31716    0.44899    0.76820    1.000
    Si2120   Si       0.29801    0.43760    0.80440    1.000
    N2121    N        0.30676    0.46043    0.84087    1.000
    Si2122   Si       0.34967    0.47701    0.77369    1.000
    N2123    N        0.38441    0.44842    0.76602    1.000
    Si2124   Si       0.47527    0.44266    0.79653    1.000
    N2125    N        0.44146    0.47064    0.78644    1.000
    Si2126   Si       0.40340    0.45946    0.80685    1.000
    N2127    N        0.40880    0.43077    0.83661    1.000
    N2128    N        0.48905    0.44520    0.83723    1.000
    Si2129   Si       0.41783    0.47072    0.74797    1.000
    Si2130   Si       0.32512    0.46387    0.87906    1.000
    N2131    N        0.33229    0.42545    0.95312    1.000
    Si2132   Si       0.29344    0.43462    0.97103    1.000
    N2133    N        0.29233    0.45614    0.90511    1.000
    N2134    N        0.35410    0.43329    0.88837    1.000
    Si2135   Si       0.36539    0.43916    0.97771    1.000
    Si2136   Si       0.46638    0.45532    0.97872    1.000
    N2137    N        0.41856    0.43523    0.91186    1.000
    Si2138   Si       0.39411    0.42464    0.87788    1.000
    N2139    N        0.48512    0.45787    0.90278    1.000
    N2140    N        0.46137    0.41544    0.96217    1.000
    Si2141   Si       0.44237    0.47169    0.90803    1.000
    Si2142   Si       0.29520    0.50129    0.00841    1.000
    N2143    N        0.33545    0.52265    0.01649    1.000
    Si2144   Si       0.26532    0.49195    0.07773    1.000
    Si2145   Si       0.32184    0.52206    0.11384    1.000
    N2146    N        0.29182    0.52685    0.08246    1.000
    N2147    N        0.26401    0.53041    0.01846    1.000
    Si2148   Si       0.49178    0.49930    0.05508    1.000
    Si2149   Si       0.37683    0.50916    0.00785    1.000
    N2150    N        0.39743    0.49941    0.04449    1.000
    Si2151   Si       0.39840    0.51835    0.08193    1.000
    N2152    N        0.40418    0.48674    0.11267    1.000
    N2153    N        0.45841    0.48175    0.07775    1.000
    N2154    N        0.48601    0.52713    0.02216    1.000
    Si2155   Si       0.44636    0.47958    0.12054    1.000
    Si2156   Si       0.27103    0.48461    0.20874    1.000
    Si2157   Si       0.31487    0.53181    0.18930    1.000
    N2158    N        0.31408    0.49148    0.20438    1.000
    N2159    N        0.25040    0.49996    0.24325    1.000
    N2160    N        0.24255    0.48563    0.17191    1.000
    N2161    N        0.38381    0.47974    0.23870    1.000
    N2162    N        0.46566    0.51277    0.13860    1.000
    N2163    N        0.43510    0.51814    0.20472    1.000
    Si2164   Si       0.47193    0.52021    0.18083    1.000
    Si2165   Si       0.41391    0.47891    0.20632    1.000
    N2166    N        0.34412    0.50369    0.29426    1.000
    Si2167   Si       0.33508    0.50980    0.37122    1.000
    N2168    N        0.30600    0.53373    0.34655    1.000
    Si2169   Si       0.44209    0.51177    0.32956    1.000
    Si2170   Si       0.38610    0.50308    0.27576    1.000
    N2171    N        0.42508    0.48714    0.29546    1.000
    N2172    N        0.48446    0.51328    0.33225    1.000
    Si2173   Si       0.26604    0.48647    0.48656    1.000
    N2174    N        0.35301    0.52651    0.47121    1.000
    Si2175   Si       0.27668    0.49891    0.40807    1.000
    Si2176   Si       0.34810    0.49228    0.44376    1.000
    N2177    N        0.26409    0.51198    0.45073    1.000
    N2178    N        0.31881    0.50157    0.41182    1.000
    N2179    N        0.25037    0.52699    0.38722    1.000
    N2180    N        0.42284    0.49262    0.36454    1.000
    N2181    N        0.37084    0.53213    0.37102    1.000
    Si2182   Si       0.48100    0.48319    0.48040    1.000
    N2183    N        0.45401    0.49648    0.44781    1.000
    Si2184   Si       0.40283    0.51637    0.39238    1.000
    N2185    N        0.38703    0.48936    0.42222    1.000
    N2186    N        0.29109    0.51502    0.59473    1.000
    Si2187   Si       0.34317    0.51577    0.51350    1.000
    N2188    N        0.30525    0.49412    0.50288    1.000
    Si2189   Si       0.25058    0.53383    0.59491    1.000
    N2190    N        0.36084    0.47733    0.52702    1.000
    N2191    N        0.47714    0.52066    0.55412    1.000
    Si2192   Si       0.44011    0.52099    0.52755    1.000
    Si2193   Si       0.39832    0.52811    0.58996    1.000
    N2194    N        0.44249    0.48326    0.50814    1.000
    N2195    N        0.39302    0.48485    0.58923    1.000
    N2196    N        0.43426    0.53592    0.61335    1.000
    N2197    N        0.26459    0.49852    0.72881    1.000
    N2198    N        0.35115    0.51369    0.68166    1.000
    Si2199   Si       0.29467    0.52711    0.74247    1.000
    Si2200   Si       0.36594    0.52482    0.72270    1.000
    Si2201   Si       0.43877    0.52823    0.72293    1.000
    N2202    N        0.44242    0.51831    0.67894    1.000
    N2203    N        0.40219    0.50949    0.73683    1.000
    N2204    N        0.28222    0.52145    0.84302    1.000
    N2205    N        0.33467    0.51086    0.75167    1.000
    Si2206   Si       0.26509    0.48248    0.83354    1.000
    N2207    N        0.37159    0.48799    0.81100    1.000
    Si2208   Si       0.45644    0.51249    0.78876    1.000
    Si2209   Si       0.37980    0.52992    0.81886    1.000
    N2210    N        0.42146    0.53424    0.80310    1.000
    Si2211   Si       0.48851    0.47885    0.86316    1.000
    N2212    N        0.45116    0.49873    0.87275    1.000
    N2213    N        0.47058    0.51467    0.74749    1.000
    Si2214   Si       0.27018    0.48287    0.93305    1.000
    Si2215   Si       0.29877    0.53019    0.88189    1.000
    N2216    N        0.33539    0.50546    0.88416    1.000
    N2217    N        0.27428    0.52073    0.91624    1.000
    N2218    N        0.28815    0.47770    0.97225    1.000
    Si2219   Si       0.41010    0.50344    0.95567    1.000
    N2220    N        0.44890    0.48421    0.95367    1.000
    N2221    N        0.38123    0.47889    0.97587    1.000
    Si2222   Si       0.36975    0.52658    0.89657    1.000
    N2223    N        0.40475    0.50445    0.91379    1.000
    Si2224   Si       0.43100    0.53703    0.88136    1.000
    N2225    N        0.31285    0.57903    0.03935    1.000
    N2226    N        0.25398    0.58314    0.07444    1.000
    Si2227   Si       0.27825    0.55402    0.05051    1.000
    Si2228   Si       0.34579    0.55170    0.04877    1.000
    N2229    N        0.35644    0.53218    0.08781    1.000
    Si2230   Si       0.31600    0.59068    0.99578    1.000
    N2231    N        0.38693    0.57022    0.04726    1.000
    N2232    N        0.43026    0.54665    0.09050    1.000
    Si2233   Si       0.42296    0.58263    0.06783    1.000
    Si2234   Si       0.46908    0.54737    0.10992    1.000
    N2235    N        0.45907    0.58599    0.04247    1.000
    Si2236   Si       0.27014    0.56396    0.16125    1.000
    N2237    N        0.30952    0.54692    0.14772    1.000
    Si2238   Si       0.32347    0.58981    0.14662    1.000
    N2239    N        0.35183    0.58930    0.24340    1.000
    N2240    N        0.27370    0.54247    0.19979    1.000
    N2241    N        0.35512    0.54295    0.19846    1.000
    N2242    N        0.48005    0.58751    0.12364    1.000
    Si2243   Si       0.36954    0.58249    0.20580    1.000
    N2244    N        0.41187    0.58771    0.21006    1.000
    Si2245   Si       0.42743    0.55184    0.23065    1.000
    N2246    N        0.30019    0.56340    0.28017    1.000
    Si2247   Si       0.25897    0.57065    0.29022    1.000
    Si2248   Si       0.26721    0.55102    0.35667    1.000
    N2249    N        0.24126    0.54713    0.32134    1.000
    Si2250   Si       0.32523    0.54019    0.30797    1.000
    N2251    N        0.35992    0.56647    0.31293    1.000
    N2252    N        0.26940    0.59221    0.36982    1.000
    N2253    N        0.39677    0.54143    0.25955    1.000
    N2254    N        0.42854    0.55287    0.33039    1.000
    Si2255   Si       0.37819    0.57675    0.27496    1.000
    Si2256   Si       0.38859    0.56423    0.34680    1.000
    N2257    N        0.45617    0.57305    0.25875    1.000
    Si2258   Si       0.44934    0.58895    0.34729    1.000
    N2259    N        0.48603    0.57770    0.36685    1.000
    Si2260   Si       0.34990    0.57190    0.46729    1.000
    Si2261   Si       0.27022    0.55629    0.45932    1.000
    N2262    N        0.30801    0.58227    0.46544    1.000
    N2263    N        0.24942    0.58629    0.43386    1.000
    N2264    N        0.24731    0.56712    0.49408    1.000
    Si2265   Si       0.44610    0.53822    0.45304    1.000
    Si2266   Si       0.40658    0.58809    0.41424    1.000
    N2267    N        0.43022    0.54646    0.49368    1.000
    N2268    N        0.41935    0.54684    0.42019    1.000
    N2269    N        0.47754    0.56738    0.45215    1.000
    N2270    N        0.36870    0.59219    0.43493    1.000
    N2271    N        0.30326    0.58331    0.59445    1.000
    Si2272   Si       0.34378    0.58695    0.53942    1.000
    N2273    N        0.33380    0.54331    0.54536    1.000
    Si2274   Si       0.32172    0.54452    0.58798    1.000
    N2275    N        0.35852    0.53904    0.60945    1.000
    N2276    N        0.47823    0.58214    0.58631    1.000
    Si2277   Si       0.40763    0.57338    0.51770    1.000
    N2278    N        0.36871    0.58710    0.50376    1.000
    N2279    N        0.40861    0.54124    0.55058    1.000
    Si2280   Si       0.47134    0.53854    0.59158    1.000
    Si2281   Si       0.35852    0.54637    0.65238    1.000
    N2282    N        0.28725    0.56565    0.71836    1.000
    Si2283   Si       0.28619    0.58402    0.63534    1.000
    N2284    N        0.32112    0.56862    0.65987    1.000
    Si2285   Si       0.32260    0.58349    0.70036    1.000
    N2286    N        0.25044    0.56041    0.63219    1.000
    N2287    N        0.36080    0.56699    0.71722    1.000
    N2288    N        0.46271    0.58794    0.65961    1.000
    Si2289   Si       0.43393    0.55410    0.65338    1.000
    Si2290   Si       0.39612    0.58733    0.70084    1.000
    Si2291   Si       0.46873    0.59207    0.70262    1.000
    N2292    N        0.43308    0.57164    0.71572    1.000
    N2293    N        0.39492    0.56961    0.66157    1.000
    N2294    N        0.35162    0.56106    0.81348    1.000
    Si2295   Si       0.31552    0.57726    0.79445    1.000
    N2296    N        0.28320    0.55331    0.77668    1.000
    N2297    N        0.28278    0.58989    0.82711    1.000
    Si2298   Si       0.25850    0.54805    0.81568    1.000
    Si2299   Si       0.25578    0.57303    0.74741    1.000
    Si2300   Si       0.37082    0.58406    0.84573    1.000
    N2301    N        0.45972    0.56265    0.85180    1.000
    Si2302   Si       0.43613    0.57398    0.81762    1.000
    N2303    N        0.38984    0.54591    0.86298    1.000
    N2304    N        0.45881    0.58580    0.78143    1.000
    Si2305   Si       0.32772    0.58239    0.92627    1.000
    Si2306   Si       0.26563    0.55661    0.93818    1.000
    N2307    N        0.30552    0.57007    0.89208    1.000
    N2308    N        0.29916    0.57511    0.95965    1.000
    N2309    N        0.36177    0.55411    0.92916    1.000
    N2310    N        0.35956    0.58933    0.99212    1.000
    N2311    N        0.24122    0.58744    0.91914    1.000
    N2312    N        0.46350    0.58308    0.97621    1.000
    Si2313   Si       0.47271    0.59290    0.88347    1.000
    Si2314   Si       0.38556    0.56983    0.96126    1.000
    N2315    N        0.44337    0.56417    0.91101    1.000
    N2316    N        0.40150    0.53613    0.98100    1.000
    Si2317   Si       0.31795    0.61362    0.06582    1.000
    N2318    N        0.28864    0.64664    0.06234    1.000
    Si2319   Si       0.24852    0.62187    0.05940    1.000
    N2320    N        0.35873    0.63063    0.05762    1.000
    N2321    N        0.32136    0.59899    0.10542    1.000
    N2322    N        0.31007    0.63467    0.99791    1.000
    Si2323   Si       0.37910    0.60877    0.02427    1.000
    Si2324   Si       0.38104    0.64074    0.09196    1.000
    N2325    N        0.41645    0.62573    0.01368    1.000
    N2326    N        0.41488    0.61225    0.09794    1.000
    Si2327   Si       0.45956    0.61396    0.00822    1.000
    Si2328   Si       0.28457    0.63594    0.19521    1.000
    N2329    N        0.28516    0.62203    0.23755    1.000
    Si2330   Si       0.35883    0.64785    0.17208    1.000
    N2331    N        0.28606    0.60481    0.16475    1.000
    N2332    N        0.35578    0.60440    0.17181    1.000
    N2333    N        0.45158    0.61918    0.16827    1.000
    Si2334   Si       0.48731    0.59356    0.16707    1.000
    Si2335   Si       0.42615    0.62866    0.20647    1.000
    Si2336   Si       0.44825    0.62027    0.12517    1.000
    N2337    N        0.25928    0.61321    0.30099    1.000
    Si2338   Si       0.26333    0.62848    0.34090    1.000
    Si2339   Si       0.26060    0.64041    0.26785    1.000
    N2340    N        0.33202    0.63431    0.28521    1.000
    Si2341   Si       0.31574    0.60202    0.26190    1.000
    Si2342   Si       0.37265    0.64476    0.29617    1.000
    N2343    N        0.39977    0.61377    0.28483    1.000
    N2344    N        0.45978    0.61738    0.31553    1.000
    Si2345   Si       0.44296    0.61313    0.27578    1.000
    N2346    N        0.44886    0.64093    0.24159    1.000
    N2347    N        0.41154    0.59550    0.37066    1.000
    N2348    N        0.33286    0.64633    0.47043    1.000
    N2349    N        0.31811    0.62597    0.40128    1.000
    Si2350   Si       0.27728    0.61146    0.40740    1.000
    Si2351   Si       0.34878    0.63003    0.43195    1.000
    N2352    N        0.25324    0.64865    0.41199    1.000
    Si2353   Si       0.30134    0.61951    0.48870    1.000
    N2354    N        0.26123    0.63430    0.48781    1.000
    Si2355   Si       0.23513    0.60304    0.47528    1.000
    N2356    N        0.43139    0.61408    0.43611    1.000
    N2357    N        0.47391    0.63412    0.48668    1.000
    Si2358   Si       0.47024    0.60988    0.45128    1.000
    Si2359   Si       0.28897    0.61716    0.56708    1.000
    N2360    N        0.24650    0.61841    0.57606    1.000
    Si2361   Si       0.34836    0.64287    0.59480    1.000
    N2362    N        0.30683    0.60556    0.52924    1.000
    N2363    N        0.31076    0.65376    0.57524    1.000
    N2364    N        0.36158    0.61046    0.57126    1.000
    N2365    N        0.44783    0.63543    0.59898    1.000
    N2366    N        0.43243    0.60759    0.53116    1.000
    Si2367   Si       0.43889    0.64634    0.51043    1.000
    Si2368   Si       0.46023    0.61447    0.56319    1.000
    Si2369   Si       0.31194    0.64193    0.66738    1.000
    N2370    N        0.31998    0.62482    0.70621    1.000
    N2371    N        0.27650    0.62288    0.65177    1.000
    Si2372   Si       0.24462    0.65080    0.65347    1.000
    N2373    N        0.34297    0.64619    0.63898    1.000
    Si2374   Si       0.31750    0.64642    0.74425    1.000
    Si2375   Si       0.47379    0.60996    0.62351    1.000
    N2376    N        0.47295    0.62894    0.72548    1.000
    N2377    N        0.39152    0.62854    0.70744    1.000
    N2378    N        0.30819    0.61611    0.77564    1.000
    N2379    N        0.34261    0.61135    0.85892    1.000
    Si2380   Si       0.26991    0.62098    0.79534    1.000
    Si2381   Si       0.29922    0.60279    0.86407    1.000
    N2382    N        0.23900    0.60769    0.76886    1.000
    Si2383   Si       0.45770    0.62555    0.76529    1.000
    Si2384   Si       0.40801    0.64162    0.81374    1.000
    N2385    N        0.41693    0.64206    0.77241    1.000
    N2386    N        0.40673    0.60183    0.82857    1.000
    N2387    N        0.48514    0.65093    0.79084    1.000
    N2388    N        0.49082    0.62267    0.85464    1.000
    Si2389   Si       0.24424    0.63035    0.91343    1.000
    Si2390   Si       0.30482    0.64442    0.95491    1.000
    N2391    N        0.33586    0.62364    0.93066    1.000
    N2392    N        0.26237    0.64237    0.95011    1.000
    N2393    N        0.27446    0.63513    0.88255    1.000
    Si2394   Si       0.24230    0.64994    0.98566    1.000
    Si2395   Si       0.44417    0.59739    0.93926    1.000
    Si2396   Si       0.37499    0.64070    0.93050    1.000
    N2397    N        0.40188    0.60599    0.94342    1.000
    N2398    N        0.46826    0.62457    0.91523    1.000
    N2399    N        0.33822    0.69027    0.02207    1.000
    Si2400   Si       0.26737    0.67240    0.09090    1.000
    N2401    N        0.26306    0.68037    0.00903    1.000
    Si2402   Si       0.30125    0.66728    0.02479    1.000
    Si2403   Si       0.24160    0.70728    0.03443    1.000
    Si2404   Si       0.37224    0.70707    0.04790    1.000
    Si2405   Si       0.42948    0.69401    0.10222    1.000
    N2406    N        0.40758    0.69826    0.02006    1.000
    N2407    N        0.39430    0.68330    0.08189    1.000
    N2408    N        0.47885    0.70341    0.02042    1.000
    N2409    N        0.45493    0.66169    0.11474    1.000
    N2410    N        0.28961    0.68510    0.12381    1.000
    Si2411   Si       0.32362    0.70455    0.18885    1.000
    Si2412   Si       0.24556    0.70329    0.19361    1.000
    N2413    N        0.24588    0.65944    0.18615    1.000
    N2414    N        0.32072    0.66017    0.19001    1.000
    Si2415   Si       0.36990    0.69970    0.12103    1.000
    N2416    N        0.36508    0.65517    0.13007    1.000
    Si2417   Si       0.38838    0.68939    0.22883    1.000
    N2418    N        0.42927    0.70492    0.23539    1.000
    N2419    N        0.39250    0.65653    0.19931    1.000
    Si2420   Si       0.31154    0.66839    0.30304    1.000
    N2421    N        0.27426    0.67869    0.28294    1.000
    Si2422   Si       0.24522    0.71147    0.27495    1.000
    N2423    N        0.33104    0.70857    0.30423    1.000
    N2424    N        0.29784    0.65144    0.34107    1.000
    N2425    N        0.36628    0.66272    0.33695    1.000
    Si2426   Si       0.33365    0.65158    0.36657    1.000
    N2427    N        0.37896    0.67731    0.26858    1.000
    N2428    N        0.45862    0.68573    0.30004    1.000
    Si2429   Si       0.45823    0.68126    0.25613    1.000
    Si2430   Si       0.37136    0.70645    0.35573    1.000
    Si2431   Si       0.47292    0.65724    0.32964    1.000
    N2432    N        0.45583    0.65364    0.36949    1.000
    Si2433   Si       0.24372    0.68842    0.42993    1.000
    N2434    N        0.33793    0.69266    0.38415    1.000
    Si2435   Si       0.36351    0.70562    0.42031    1.000
    N2436    N        0.24094    0.70022    0.47202    1.000
    N2437    N        0.45018    0.68055    0.43506    1.000
    N2438    N        0.40523    0.65719    0.48608    1.000
    Si2439   Si       0.36467    0.67422    0.48546    1.000
    Si2440   Si       0.47853    0.66332    0.40549    1.000
    N2441    N        0.37671    0.66179    0.42434    1.000
    Si2442   Si       0.41696    0.65620    0.44184    1.000
    Si2443   Si       0.31599    0.68544    0.54434    1.000
    N2444    N        0.28709    0.69581    0.51627    1.000
    Si2445   Si       0.25072    0.67347    0.50554    1.000
    N2446    N        0.35627    0.68064    0.52851    1.000
    N2447    N        0.24067    0.67562    0.61989    1.000
    Si2448   Si       0.37081    0.70463    0.56258    1.000
    N2449    N        0.44565    0.67903    0.53812    1.000
    N2450    N        0.38064    0.67450    0.59387    1.000
    Si2451   Si       0.42122    0.66743    0.60958    1.000
    N2452    N        0.44114    0.70514    0.60093    1.000
    Si2453   Si       0.47110    0.69610    0.57177    1.000
    Si2454   Si       0.26629    0.68546    0.70773    1.000
    N2455    N        0.29455    0.68163    0.67473    1.000
    Si2456   Si       0.37111    0.68046    0.64148    1.000
    Si2457   Si       0.39535    0.65796    0.73729    1.000
    N2458    N        0.47863    0.68246    0.68191    1.000
    N2459    N        0.41244    0.67254    0.65201    1.000
    Si2460   Si       0.43544    0.69070    0.68345    1.000
    N2461    N        0.41397    0.69319    0.72092    1.000
    Si2462   Si       0.27348    0.66993    0.85739    1.000
    N2463    N        0.31622    0.68154    0.85489    1.000
    N2464    N        0.35409    0.66869    0.75181    1.000
    Si2465   Si       0.24586    0.67606    0.78021    1.000
    N2466    N        0.27665    0.66714    0.74789    1.000
    Si2467   Si       0.35190    0.65616    0.85999    1.000
    N2468    N        0.26204    0.65624    0.81654    1.000
    N2469    N        0.24962    0.70473    0.86900    1.000
    Si2470   Si       0.36377    0.68938    0.78875    1.000
    N2471    N        0.37054    0.66300    0.82088    1.000
    N2472    N        0.43679    0.66243    0.84032    1.000
    Si2473   Si       0.47996    0.65781    0.83347    1.000
    N2474    N        0.40187    0.70813    0.78411    1.000
    N2475    N        0.31211    0.68691    0.95412    1.000
    Si2476   Si       0.34708    0.69422    0.98009    1.000
    Si2477   Si       0.41991    0.68018    0.87676    1.000
    N2478    N        0.38007    0.66840    0.96482    1.000
    Si2479   Si       0.47033    0.66505    0.93216    1.000
    N2480    N        0.45152    0.65910    0.97224    1.000
    N2481    N        0.38194    0.66016    0.89251    1.000
    Si2482   Si       0.41260    0.66458    0.99331    1.000
    N2483    N        0.44290    0.69155    0.91102    1.000
    Si2484   Si       0.26921    0.75224    0.08147    1.000
    Si2485   Si       0.33696    0.75758    0.06754    1.000
    N2486    N        0.34233    0.71880    0.09093    1.000
    N2487    N        0.29128    0.75842    0.11734    1.000
    N2488    N        0.25717    0.71043    0.07356    1.000
    Si2489   Si       0.31109    0.72120    0.12210    1.000
    N2490    N        0.29811    0.75523    0.04835    1.000
    N2491    N        0.37201    0.75061    0.04418    1.000
    Si2492   Si       0.46080    0.75905    0.10239    1.000
    N2493    N        0.44716    0.72570    0.07704    1.000
    N2494    N        0.43417    0.76043    0.01181    1.000
    Si2495   Si       0.44302    0.72287    0.03249    1.000
    Si2496   Si       0.28488    0.76303    0.20258    1.000
    Si2497   Si       0.34708    0.75480    0.23286    1.000
    N2498    N        0.30513    0.76403    0.23959    1.000
    N2499    N        0.28353    0.72192    0.19142    1.000
    N2500    N        0.34259    0.71720    0.15201    1.000
    N2501    N        0.35403    0.71433    0.21767    1.000
    N2502    N        0.41902    0.75762    0.19879    1.000
    Si2503   Si       0.45561    0.73099    0.21541    1.000
    Si2504   Si       0.42792    0.74143    0.16065    1.000
    N2505    N        0.46495    0.72187    0.17450    1.000
    N2506    N        0.40790    0.71266    0.13572    1.000
    N2507    N        0.28722    0.74220    0.34891    1.000
    Si2508   Si       0.31915    0.74682    0.32155    1.000
    N2509    N        0.35191    0.74548    0.34990    1.000
    Si2510   Si       0.24882    0.76255    0.35329    1.000
    N2511    N        0.24915    0.75395    0.27889    1.000
    N2512    N        0.37223    0.75174    0.26797    1.000
    N2513    N        0.44076    0.76493    0.29219    1.000
    Si2514   Si       0.44425    0.72558    0.31422    1.000
    N2515    N        0.46415    0.72219    0.35415    1.000
    Si2516   Si       0.37094    0.71453    0.28997    1.000
    N2517    N        0.40090    0.71792    0.32102    1.000
    N2518    N        0.26602    0.76405    0.46679    1.000
    Si2519   Si       0.30816    0.72886    0.38741    1.000
    Si2520   Si       0.25557    0.75559    0.42584    1.000
    N2521    N        0.33769    0.74390    0.41776    1.000
    N2522    N        0.27284    0.71798    0.41276    1.000
    N2523    N        0.39782    0.71461    0.38987    1.000
    N2524    N        0.43505    0.73009    0.48665    1.000
    Si2525   Si       0.46209    0.71756    0.45615    1.000
    N2526    N        0.45851    0.74557    0.42131    1.000
    Si2527   Si       0.43358    0.73821    0.38590    1.000
    Si2528   Si       0.39680    0.74841    0.47478    1.000
    N2529    N        0.37284    0.71256    0.46359    1.000
    Si2530   Si       0.31659    0.76068    0.55676    1.000
    N2531    N        0.33259    0.72130    0.56550    1.000
    N2532    N        0.29789    0.76406    0.51974    1.000
    Si2533   Si       0.26979    0.73218    0.49792    1.000
    N2534    N        0.40155    0.73247    0.54818    1.000
    N2535    N        0.47528    0.73371    0.54543    1.000
    Si2536   Si       0.43753    0.72044    0.52787    1.000
    N2537    N        0.40897    0.76657    0.61920    1.000
    N2538    N        0.27997    0.73459    0.63696    1.000
    N2539    N        0.32220    0.73909    0.69785    1.000
    Si2540   Si       0.31362    0.71902    0.66186    1.000
    N2541    N        0.35552    0.71871    0.64531    1.000
    N2542    N        0.24789    0.72215    0.71866    1.000
    Si2543   Si       0.24214    0.71750    0.62878    1.000
    Si2544   Si       0.34768    0.76934    0.70893    1.000
    Si2545   Si       0.45215    0.76390    0.70225    1.000
    Si2546   Si       0.37266    0.76069    0.64293    1.000
    N2547    N        0.43980    0.73331    0.67164    1.000
    Si2548   Si       0.40473    0.72849    0.74431    1.000
    N2549    N        0.44006    0.75494    0.74273    1.000
    N2550    N        0.48592    0.74380    0.62848    1.000
    Si2551   Si       0.44109    0.73830    0.62799    1.000
    N2552    N        0.28501    0.75019    0.83113    1.000
    N2553    N        0.34236    0.72570    0.80264    1.000
    Si2554   Si       0.31842    0.72344    0.83974    1.000
    Si2555   Si       0.24780    0.75712    0.80586    1.000
    Si2556   Si       0.35872    0.76326    0.78856    1.000
    N2557    N        0.24027    0.71392    0.79732    1.000
    N2558    N        0.34430    0.74689    0.86697    1.000
    N2559    N        0.45896    0.74131    0.81336    1.000
    Si2560   Si       0.47059    0.76131    0.77644    1.000
    Si2561   Si       0.41717    0.72964    0.81796    1.000
    N2562    N        0.40759    0.71859    0.85992    1.000
    N2563    N        0.39448    0.76680    0.81138    1.000
    Si2564   Si       0.48742    0.73374    0.84630    1.000
    N2565    N        0.36846    0.75519    0.74484    1.000
    Si2566   Si       0.25194    0.73924    0.89677    1.000
    Si2567   Si       0.30784    0.73046    0.94774    1.000
    N2568    N        0.27932    0.74528    0.97620    1.000
    N2569    N        0.29225    0.74775    0.91172    1.000
    N2570    N        0.34973    0.73387    0.96114    1.000
    Si2571   Si       0.44403    0.73425    0.91706    1.000
    N2572    N        0.46387    0.76541    0.94348    1.000
    Si2573   Si       0.38561    0.75024    0.88064    1.000
    Si2574   Si       0.37248    0.76883    0.95223    1.000
    N2575    N        0.47169    0.74509    0.88376    1.000
    N2576    N        0.40459    0.75599    0.92305    1.000
    N2577    N        0.33746    0.80064    0.07365    1.000
    Si2578   Si       0.31552    0.82371    0.04470    1.000
    Si2579   Si       0.34047    0.82709    0.10745    1.000
    Si2580   Si       0.27838    0.76633    0.01298    1.000
    N2581    N        0.28877    0.80847    0.01126    1.000
    N2582    N        0.46508    0.79303    0.07728    1.000
    N2583    N        0.40550    0.81792    0.04513    1.000
    Si2584   Si       0.39561    0.78124    0.02364    1.000
    Si2585   Si       0.43823    0.82634    0.07100    1.000
    N2586    N        0.23747    0.79904    0.14167    1.000
    Si2587   Si       0.28165    0.79749    0.13846    1.000
    N2588    N        0.30224    0.79130    0.17643    1.000
    Si2589   Si       0.33799    0.81656    0.18062    1.000
    N2590    N        0.24322    0.77371    0.20548    1.000
    N2591    N        0.43063    0.77434    0.13120    1.000
    N2592    N        0.41860    0.82217    0.18085    1.000
    N2593    N        0.35813    0.79144    0.20931    1.000
    Si2594   Si       0.40999    0.81125    0.14031    1.000
    N2595    N        0.36331    0.81525    0.14197    1.000
    Si2596   Si       0.40159    0.79419    0.21060    1.000
    N2597    N        0.47524    0.76762    0.23149    1.000
    N2598    N        0.31389    0.78711    0.30030    1.000
    Si2599   Si       0.34349    0.81795    0.30488    1.000
    N2600    N        0.25975    0.81795    0.25560    1.000
    Si2601   Si       0.28088    0.78180    0.27168    1.000
    N2602    N        0.37953    0.79841    0.31727    1.000
    Si2603   Si       0.45802    0.79067    0.26183    1.000
    Si2604   Si       0.37749    0.78049    0.35721    1.000
    N2605    N        0.41372    0.80682    0.25203    1.000
    Si2606   Si       0.40080    0.77811    0.28390    1.000
    N2607    N        0.47190    0.82993    0.27077    1.000
    N2608    N        0.42018    0.77655    0.36916    1.000
    N2609    N        0.33975    0.80360    0.46070    1.000
    Si2610   Si       0.35657    0.78017    0.42748    1.000
    N2611    N        0.26010    0.78107    0.39173    1.000
    Si2612   Si       0.26090    0.82512    0.39301    1.000
    N2613    N        0.35839    0.80427    0.38886    1.000
    Si2614   Si       0.27943    0.79503    0.49448    1.000
    Si2615   Si       0.44803    0.80911    0.37120    1.000
    N2616    N        0.46473    0.81093    0.45348    1.000
    N2617    N        0.39835    0.77708    0.44050    1.000
    Si2618   Si       0.37337    0.81524    0.48711    1.000
    Si2619   Si       0.48630    0.77947    0.42694    1.000
    N2620    N        0.48659    0.79958    0.38935    1.000
    Si2621   Si       0.42253    0.81438    0.43656    1.000
    Si2622   Si       0.26533    0.81437    0.56157    1.000
    N2623    N        0.35262    0.78769    0.56289    1.000
    N2624    N        0.24567    0.80792    0.52193    1.000
    N2625    N        0.28520    0.78213    0.58437    1.000
    Si2626   Si       0.34390    0.83022    0.55680    1.000
    N2627    N        0.41542    0.80967    0.56401    1.000
    Si2628   Si       0.42065    0.80728    0.60784    1.000
    N2629    N        0.38913    0.77979    0.50512    1.000
    N2630    N        0.45973    0.82913    0.60051    1.000
    Si2631   Si       0.39064    0.77598    0.54805    1.000
    Si2632   Si       0.29386    0.77377    0.62561    1.000
    N2633    N        0.32727    0.80812    0.70711    1.000
    N2634    N        0.27836    0.80895    0.64865    1.000
    Si2635   Si       0.31837    0.81566    0.66351    1.000
    N2636    N        0.33415    0.78208    0.63997    1.000
    Si2637   Si       0.24123    0.82258    0.63113    1.000
    N2638    N        0.38278    0.77666    0.68195    1.000
    Si2639   Si       0.40512    0.81434    0.67982    1.000
    N2640    N        0.40188    0.83100    0.63811    1.000
    N2641    N        0.44588    0.80517    0.68832    1.000
    N2642    N        0.33008    0.79490    0.79730    1.000
    N2643    N        0.26285    0.81023    0.81977    1.000
    Si2644   Si       0.30081    0.79143    0.82877    1.000
    Si2645   Si       0.25162    0.81838    0.77775    1.000
    N2646    N        0.31724    0.80786    0.86542    1.000
    N2647    N        0.24748    0.77706    0.76635    1.000
    Si2648   Si       0.40934    0.80081    0.83180    1.000
    N2649    N        0.47993    0.80310    0.76673    1.000
    N2650    N        0.44453    0.82034    0.82213    1.000
    N2651    N        0.34672    0.79079    0.92246    1.000
    Si2652   Si       0.32140    0.77367    0.89250    1.000
    N2653    N        0.40212    0.78790    0.87144    1.000
    N2654    N        0.44607    0.82276    0.98000    1.000
    Si2655   Si       0.46145    0.78153    0.98474    1.000
    Si2656   Si       0.48686    0.77921    0.90610    1.000
    N2657    N        0.45907    0.81085    0.89218    1.000
    N2658    N        0.38249    0.79609    0.98383    1.000
    Si2659   Si       0.42168    0.79964    0.90903    1.000
    N2660    N        0.39889    0.83002    0.93233    1.000
    N2661    N        0.28352    0.84805    0.05778    1.000
    N2662    N        0.34451    0.84924    0.02640    1.000
    Si2663   Si       0.25949    0.83891    0.02017    1.000
    N2664    N        0.36126    0.86077    0.08847    1.000
    Si2665   Si       0.26149    0.88523    0.06609    1.000
    N2666    N        0.30192    0.83410    0.12709    1.000
    Si2667   Si       0.47857    0.83835    0.00386    1.000
    N2668    N        0.42865    0.84112    0.11087    1.000
    N2669    N        0.46457    0.84902    0.04398    1.000
    Si2670   Si       0.38008    0.85447    0.04897    1.000
    N2671    N        0.40485    0.89206    0.04738    1.000
    Si2672   Si       0.28637    0.87549    0.13398    1.000
    N2673    N        0.27016    0.87018    0.17441    1.000
    N2674    N        0.25932    0.88610    0.23585    1.000
    N2675    N        0.33380    0.85792    0.19582    1.000
    Si2676   Si       0.29748    0.88669    0.20899    1.000
    Si2677   Si       0.23618    0.87097    0.20027    1.000
    N2678    N        0.47382    0.86006    0.20127    1.000
    Si2679   Si       0.43201    0.86415    0.19435    1.000
    Si2680   Si       0.44664    0.87872    0.12212    1.000
    N2681    N        0.40016    0.86974    0.22294    1.000
    Si2682   Si       0.25558    0.85937    0.27024    1.000
    N2683    N        0.29256    0.86806    0.29208    1.000
    Si2684   Si       0.29344    0.86908    0.33512    1.000
    N2685    N        0.25927    0.84714    0.35371    1.000
    Si2686   Si       0.32999    0.88355    0.27830    1.000
    N2687    N        0.35340    0.84675    0.27393    1.000
    N2688    N        0.32680    0.84010    0.34075    1.000
    Si2689   Si       0.45621    0.85374    0.30122    1.000
    Si2690   Si       0.39707    0.84748    0.25873    1.000
    N2691    N        0.41883    0.87008    0.28900    1.000
    Si2692   Si       0.47558    0.87558    0.35898    1.000
    N2693    N        0.45982    0.83833    0.34162    1.000
    N2694    N        0.33346    0.87467    0.45449    1.000
    Si2695   Si       0.33437    0.83943    0.38248    1.000
    N2696    N        0.34618    0.88099    0.38842    1.000
    Si2697   Si       0.31319    0.83603    0.44964    1.000
    N2698    N        0.24233    0.88809    0.47551    1.000
    N2699    N        0.30023    0.83356    0.40921    1.000
    N2700    N        0.28091    0.83488    0.47763    1.000
    N2701    N        0.42872    0.83767    0.40123    1.000
    Si2702   Si       0.40998    0.88189    0.46690    1.000
    N2703    N        0.40325    0.83971    0.46621    1.000
    N2704    N        0.45312    0.88671    0.46886    1.000
    Si2705   Si       0.42069    0.88038    0.39327    1.000
    Si2706   Si       0.47094    0.84599    0.47987    1.000
    Si2707   Si       0.28646    0.87662    0.54661    1.000
    N2708    N        0.35489    0.84201    0.51607    1.000
    N2709    N        0.24586    0.87169    0.53377    1.000
    N2710    N        0.30169    0.83802    0.55580    1.000
    N2711    N        0.36433    0.85452    0.58390    1.000
    N2712    N        0.24226    0.83916    0.59193    1.000
    Si2713   Si       0.24078    0.84774    0.49614    1.000
    Si2714   Si       0.34556    0.88228    0.49595    1.000
    Si2715   Si       0.38697    0.89189    0.57878    1.000
    N2716    N        0.42837    0.88342    0.56362    1.000
    Si2717   Si       0.44371    0.84257    0.56103    1.000
    N2718    N        0.46905    0.84046    0.52453    1.000
    N2719    N        0.33624    0.85524    0.65440    1.000
    N2720    N        0.31566    0.87713    0.71406    1.000
    N2721    N        0.25054    0.86346    0.71386    1.000
    Si2722   Si       0.34528    0.84560    0.72168    1.000
    Si2723   Si       0.24874    0.88437    0.67518    1.000
    Si2724   Si       0.28135    0.87513    0.74172    1.000
    Si2725   Si       0.32184    0.89175    0.67383    1.000
    N2726    N        0.38549    0.84321    0.70702    1.000
    N2727    N        0.44601    0.87262    0.70217    1.000
    Si2728   Si       0.41215    0.86940    0.72828    1.000
    Si2729   Si       0.36953    0.85740    0.62693    1.000
    Si2730   Si       0.47072    0.83962    0.69371    1.000
    N2731    N        0.32121    0.86130    0.82361    1.000
    N2732    N        0.26220    0.87314    0.85849    1.000
    N2733    N        0.28714    0.83790    0.76409    1.000
    N2734    N        0.35341    0.85153    0.76434    1.000
    Si2735   Si       0.34485    0.83990    0.85396    1.000
    Si2736   Si       0.32135    0.83606    0.78798    1.000
    Si2737   Si       0.23881    0.84460    0.83152    1.000
    N2738    N        0.37902    0.83375    0.82833    1.000
    N2739    N        0.42325    0.85276    0.76740    1.000
    Si2740   Si       0.38671    0.85555    0.79155    1.000
    N2741    N        0.44843    0.87879    0.85659    1.000
    Si2742   Si       0.46541    0.83738    0.85702    1.000
    Si2743   Si       0.45844    0.83707    0.78521    1.000
    Si2744   Si       0.26015    0.87750    0.90182    1.000
    Si2745   Si       0.28748    0.85306    0.95165    1.000
    N2746    N        0.35356    0.85971    0.89065    1.000
    N2747    N        0.26173    0.83763    0.91951    1.000
    Si2748   Si       0.34640    0.87145    0.98887    1.000
    N2749    N        0.32941    0.84670    0.95586    1.000
    N2750    N        0.26380    0.86713    0.98689    1.000
    Si2751   Si       0.35671    0.83311    0.92487    1.000
    Si2752   Si       0.40486    0.83208    0.97525    1.000
    N2753    N        0.38932    0.87093    0.98535    1.000
    N2754    N        0.28627    0.91961    0.05497    1.000
    Si2755   Si       0.32044    0.92615    0.03180    1.000
    Si2756   Si       0.35270    0.90113    0.09638    1.000
    N2757    N        0.35123    0.92962    0.06231    1.000
    N2758    N        0.25169    0.93428    0.99985    1.000
    N2759    N        0.31952    0.90355    0.99680    1.000
    N2760    N        0.25220    0.89035    0.10895    1.000
    N2761    N        0.45099    0.91636    0.01277    1.000
    N2762    N        0.39046    0.91796    0.11291    1.000
    Si2763   Si       0.41379    0.92235    0.07738    1.000
    N2764    N        0.45131    0.90510    0.08880    1.000
    N2765    N        0.38329    0.94208    0.00245    1.000
    Si2766   Si       0.40908    0.90639    0.00532    1.000
    Si2767   Si       0.46115    0.89312    0.04812    1.000
    N2768    N        0.32099    0.90156    0.12493    1.000
    N2769    N        0.32998    0.90571    0.24194    1.000
    Si2770   Si       0.33009    0.92897    0.15892    1.000
    N2771    N        0.29758    0.92642    0.18684    1.000
    Si2772   Si       0.39994    0.92266    0.15391    1.000
    N2773    N        0.43015    0.89282    0.15899    1.000
    Si2774   Si       0.36163    0.88800    0.21344    1.000
    N2775    N        0.36565    0.91407    0.18058    1.000
    N2776    N        0.28615    0.91124    0.34869    1.000
    Si2777   Si       0.24610    0.92075    0.36092    1.000
    N2778    N        0.34176    0.90197    0.31571    1.000
    Si2779   Si       0.31368    0.94156    0.32848    1.000
    Si2780   Si       0.36056    0.90284    0.35359    1.000
    N2781    N        0.35085    0.94676    0.35632    1.000
    Si2782   Si       0.42278    0.90407    0.31749    1.000
    N2783    N        0.46873    0.89571    0.31872    1.000
    N2784    N        0.41820    0.94655    0.31774    1.000
    N2785    N        0.40188    0.89341    0.35448    1.000
    N2786    N        0.28046    0.92849    0.44335    1.000
    Si2787   Si       0.35404    0.90019    0.42627    1.000
    Si2788   Si       0.27893    0.91276    0.48322    1.000
    N2789    N        0.34585    0.94301    0.42967    1.000
    Si2790   Si       0.24290    0.93109    0.42243    1.000
    N2791    N        0.45989    0.90064    0.38959    1.000
    Si2792   Si       0.46591    0.92861    0.46368    1.000
    N2793    N        0.39690    0.89323    0.42675    1.000
    N2794    N        0.38408    0.90269    0.49446    1.000
    Si2795   Si       0.32215    0.92363    0.55364    1.000
    N2796    N        0.25656    0.94014    0.50895    1.000
    N2797    N        0.29413    0.90136    0.58148    1.000
    N2798    N        0.30857    0.90026    0.51556    1.000
    Si2799   Si       0.28539    0.92541    0.61952    1.000
    N2800    N        0.32166    0.94842    0.61633    1.000
    N2801    N        0.36553    0.92077    0.55418    1.000
    N2802    N        0.24848    0.94892    0.61806    1.000
    Si2803   Si       0.38813    0.93815    0.52024    1.000
    Si2804   Si       0.44768    0.92389    0.56043    1.000
    N2805    N        0.44752    0.93971    0.59987    1.000
    N2806    N        0.38038    0.90151    0.62033    1.000
    N2807    N        0.48719    0.91908    0.54525    1.000
    N2808    N        0.42662    0.95181    0.53405    1.000
    N2809    N        0.35086    0.92466    0.67383    1.000
    N2810    N        0.28369    0.90219    0.65625    1.000
    Si2811   Si       0.36109    0.93794    0.63204    1.000
    N2812    N        0.46679    0.92312    0.73663    1.000
    Si2813   Si       0.38371    0.93592    0.70070    1.000
    N2814    N        0.38877    0.90676    0.73394    1.000
    N2815    N        0.42009    0.93508    0.67717    1.000
    Si2816   Si       0.45379    0.91351    0.69512    1.000
    N2817    N        0.48408    0.92595    0.66702    1.000
    N2818    N        0.29157    0.93068    0.82259    1.000
    N2819    N        0.26927    0.91163    0.76099    1.000
    N2820    N        0.33151    0.93727    0.76581    1.000
    Si2821   Si       0.29213    0.94115    0.78109    1.000
    Si2822   Si       0.29871    0.89240    0.84257    1.000
    Si2823   Si       0.37092    0.91651    0.77223    1.000
    Si2824   Si       0.41689    0.90469    0.83983    1.000
    N2825    N        0.38890    0.89505    0.80642    1.000
    N2826    N        0.43666    0.94139    0.82220    1.000
    N2827    N        0.32143    0.91641    0.87269    1.000
    Si2828   Si       0.30972    0.92843    0.91824    1.000
    Si2829   Si       0.28264    0.91324    0.97527    1.000
    N2830    N        0.35434    0.92288    0.93146    1.000
    N2831    N        0.28742    0.89292    0.93266    1.000
    Si2832   Si       0.35952    0.90338    0.89151    1.000
    N2833    N        0.42051    0.92351    0.95304    1.000
    Si2834   Si       0.45938    0.93451    0.97360    1.000
    N2835    N        0.39735    0.91695    0.87603    1.000
    N2836    N        0.46033    0.94595    0.89771    1.000
    Si2837   Si       0.47448    0.90596    0.87946    1.000
    Si2838   Si       0.42055    0.93608    0.90893    1.000
    N2839    N        0.31144    0.96770    0.02166    1.000
    N2840    N        0.25375    0.99356    0.04522    1.000
    N2841    N        0.30161    0.00106    0.08979    1.000
    Si2842   Si       0.32035    0.00242    0.04980    1.000
    N2843    N        0.36372    0.99802    0.05697    1.000
    Si2844   Si       0.25800    0.94973    0.03980    1.000
    Si2845   Si       0.37797    0.96009    0.04324    1.000
    N2846    N        0.41705    0.96203    0.06268    1.000
    Si2847   Si       0.44345    0.99783    0.06890    1.000
    N2848    N        0.45635    0.00066    0.11061    1.000
    N2849    N        0.48042    0.00164    0.04245    1.000
    N2850    N        0.24694    0.96154    0.22253    1.000
    Si2851   Si       0.30743    0.99937    0.13333    1.000
    Si2852   Si       0.28250    0.96659    0.19647    1.000
    N2853    N        0.33548    0.96782    0.14451    1.000
    N2854    N        0.31452    0.98210    0.22250    1.000
    N2855    N        0.27343    0.99046    0.16146    1.000
    N2856    N        0.40726    0.96529    0.15622    1.000
    Si2857   Si       0.37105    0.98849    0.15975    1.000
    Si2858   Si       0.42707    0.00030    0.14007    1.000
    N2859    N        0.28787    0.97861    0.33953    1.000
    Si2860   Si       0.27991    0.98726    0.29486    1.000
    N2861    N        0.30320    0.95132    0.28669    1.000
    Si2862   Si       0.32867    0.94892    0.25085    1.000
    N2863    N        0.36882    0.96095    0.25775    1.000
    Si2864   Si       0.44587    0.97587    0.30018    1.000
    Si2865   Si       0.38915    0.96470    0.34349    1.000
    Si2866   Si       0.38152    0.99419    0.28172    1.000
    N2867    N        0.42289    0.00070    0.27275    1.000
    N2868    N        0.37109    0.99961    0.32386    1.000
    N2869    N        0.47589    0.95421    0.27912    1.000
    N2870    N        0.45820    0.00539    0.33032    1.000
    N2871    N        0.24001    0.95843    0.38622    1.000
    Si2872   Si       0.27001    0.98963    0.37756    1.000
    N2873    N        0.31057    0.97356    0.48304    1.000
    N2874    N        0.29840    0.98937    0.41245    1.000
    Si2875   Si       0.30910    0.96089    0.44323    1.000
    Si2876   Si       0.35714    0.96658    0.39511    1.000
    Si2877   Si       0.34260    0.00167    0.49096    1.000
    N2878    N        0.47191    0.96914    0.38682    1.000
    Si2879   Si       0.43465    0.97713    0.40729    1.000
    Si2880   Si       0.46898    0.99020    0.46351    1.000
    N2881    N        0.43907    0.95576    0.44300    1.000
    N2882    N        0.47996    0.95915    0.49156    1.000
    N2883    N        0.40077    0.96657    0.38409    1.000
    Si2884   Si       0.31569    0.98218    0.58968    1.000
    Si2885   Si       0.28211    0.97374    0.51609    1.000
    N2886    N        0.30771    0.96397    0.55052    1.000
    N2887    N        0.35150    0.00607    0.59196    1.000
    N2888    N        0.28238    0.00712    0.59534    1.000
    Si2889   Si       0.42038    0.99327    0.51590    1.000
    Si2890   Si       0.48402    0.96267    0.60577    1.000
    N2891    N        0.38001    0.97874    0.50247    1.000
    Si2892   Si       0.25622    0.98922    0.62854    1.000
    N2893    N        0.27732    0.98961    0.66645    1.000
    Si2894   Si       0.25937    0.98722    0.70879    1.000
    N2895    N        0.29574    0.00558    0.72101    1.000
    Si2896   Si       0.43005    0.95325    0.63771    1.000
    Si2897   Si       0.49169    0.96814    0.67347    1.000
    N2898    N        0.46499    0.98195    0.64020    1.000
    N2899    N        0.39100    0.96858    0.62865    1.000
    N2900    N        0.37385    0.97527    0.71577    1.000
    N2901    N        0.47508    0.98584    0.71089    1.000
    N2902    N        0.28112    0.98206    0.78031    1.000
    N2903    N        0.31570    0.99413    0.85269    1.000
    N2904    N        0.24568    0.99634    0.84208    1.000
    Si2905   Si       0.24407    0.99096    0.79959    1.000
    Si2906   Si       0.35340    0.97345    0.75474    1.000
    Si2907   Si       0.30089    0.95419    0.85821    1.000
    N2908    N        0.44166    0.98950    0.77380    1.000
    Si2909   Si       0.41326    0.97510    0.80519    1.000
    N2910    N        0.47690    0.99188    0.84384    1.000
    N2911    N        0.38591    0.95795    0.77868    1.000
    Si2912   Si       0.47713    0.95607    0.82132    1.000
    N2913    N        0.38875    0.99540    0.83534    1.000
    Si2914   Si       0.46917    0.96484    0.75012    1.000
    Si2915   Si       0.27376    0.98462    0.93220    1.000
    Si2916   Si       0.31587    0.98141    0.98218    1.000
    N2917    N        0.35425    0.98679    0.96325    1.000
    N2918    N        0.29656    0.95094    0.95497    1.000
    N2919    N        0.27632    0.95131    0.89513    1.000
    Si2920   Si       0.43704    0.00052    0.93908    1.000
    Si2921   Si       0.48216    0.98275    0.88629    1.000
    N2922    N        0.45301    0.97642    0.96953    1.000
    N2923    N        0.40059    0.97331    0.92393    1.000
    Si2924   Si       0.37982    0.94810    0.95704    1.000
    Si2925   Si       0.50128    0.03988    0.03236    1.000
    N2926    N        0.59618    0.05532    0.01960    1.000
    N2927    N        0.54042    0.02121    0.04249    1.000
    Si2928   Si       0.57329    0.01977    0.01448    1.000
    Si2929   Si       0.60593    0.03279    0.11519    1.000
    N2930    N        0.50474    0.05899    0.99459    1.000
    Si2931   Si       0.49802    0.00540    0.12076    1.000
    N2932    N        0.61393    0.01185    0.07812    1.000
    Si2933   Si       0.72064    0.05751    0.00360    1.000
    N2934    N        0.70666    0.05555    0.11116    1.000
    Si2935   Si       0.62794    0.03907    0.04696    1.000
    N2936    N        0.64539    0.01240    0.01859    1.000
    N2937    N        0.71584    0.01468    0.00447    1.000
    N2938    N        0.51988    0.04470    0.11994    1.000
    Si2939   Si       0.55298    0.06205    0.14416    1.000
    N2940    N        0.57697    0.04492    0.17756    1.000
    Si2941   Si       0.59285    0.06593    0.21040    1.000
    N2942    N        0.49064    0.06361    0.18750    1.000
    Si2943   Si       0.67840    0.05550    0.14486    1.000
    Si2944   Si       0.72718    0.01851    0.18386    1.000
    Si2945   Si       0.67220    0.04909    0.22380    1.000
    N2946    N        0.64466    0.03097    0.13657    1.000
    N2947    N        0.69342    0.04656    0.18683    1.000
    N2948    N        0.73514    0.00934    0.22830    1.000
    N2949    N        0.66882    0.00842    0.24353    1.000
    N2950    N        0.51353    0.04625    0.31716    1.000
    N2951    N        0.57616    0.02461    0.30649    1.000
    Si2952   Si       0.58942    0.05919    0.28394    1.000
    Si2953   Si       0.53547    0.01271    0.30396    1.000
    N2954    N        0.58823    0.04156    0.24415    1.000
    N2955    N        0.63182    0.01627    0.33792    1.000
    N2956    N        0.68623    0.02655    0.31053    1.000
    Si2957   Si       0.65399    0.05190    0.32368    1.000
    Si2958   Si       0.72687    0.03687    0.32678    1.000
    Si2959   Si       0.70713    0.01575    0.26645    1.000
    N2960    N        0.70085    0.06411    0.25062    1.000
    N2961    N        0.73421    0.02106    0.36464    1.000
    N2962    N        0.57365    0.02399    0.37614    1.000
    N2963    N        0.50236    0.02838    0.38395    1.000
    Si2964   Si       0.53993    0.04993    0.38531    1.000
    Si2965   Si       0.53820    0.03715    0.46510    1.000
    N2966    N        0.55370    0.05265    0.42855    1.000
    Si2967   Si       0.59072    0.03358    0.41287    1.000
    N2968    N        0.60886    0.01211    0.44578    1.000
    N2969    N        0.67001    0.01135    0.46915    1.000
    N2970    N        0.62857    0.05666    0.40945    1.000
    N2971    N        0.68182    0.06498    0.44047    1.000
    Si2972   Si       0.64320    0.04015    0.44830    1.000
    Si2973   Si       0.70100    0.04394    0.47472    1.000
    N2974    N        0.52456    0.03261    0.54066    1.000
    N2975    N        0.59411    0.05557    0.60525    1.000
    Si2976   Si       0.56787    0.01901    0.60728    1.000
    Si2977   Si       0.60055    0.05604    0.50878    1.000
    Si2978   Si       0.50009    0.02173    0.57626    1.000
    N2979    N        0.52556    0.02812    0.61028    1.000
    N2980    N        0.56952    0.02527    0.49547    1.000
    N2981    N        0.61957    0.03599    0.54394    1.000
    N2982    N        0.66145    0.05660    0.60590    1.000
    N2983    N        0.70116    0.04012    0.51877    1.000
    Si2984   Si       0.62876    0.06031    0.57931    1.000
    Si2985   Si       0.67393    0.01444    0.60754    1.000
    N2986    N        0.54573    0.04477    0.67294    1.000
    Si2987   Si       0.51253    0.05217    0.64329    1.000
    Si2988   Si       0.61138    0.03584    0.72870    1.000
    N2989    N        0.52155    0.06473    0.73447    1.000
    N2990    N        0.64666    0.02940    0.70426    1.000
    Si2991   Si       0.67751    0.05855    0.71012    1.000
    N2992    N        0.70758    0.03920    0.73792    1.000
    Si2993   Si       0.52238    0.04612    0.77557    1.000
    N2994    N        0.58088    0.04347    0.83975    1.000
    Si2995   Si       0.58707    0.02491    0.80291    1.000
    N2996    N        0.51527    0.04490    0.85998    1.000
    N2997    N        0.54698    0.01333    0.78854    1.000
    N2998    N        0.61654    0.03071    0.77121    1.000
    Si2999   Si       0.70115    0.04441    0.77871    1.000
    N3000    N        0.67869    0.01008    0.79664    1.000
    N3001    N        0.73580    0.03285    0.80395    1.000
    Si3002   Si       0.60122    0.01887    0.87115    1.000
    Si3003   Si       0.53398    0.04994    0.96392    1.000
    Si3004   Si       0.53153    0.02620    0.89701    1.000
    N3005    N        0.57528    0.03638    0.90324    1.000
    N3006    N        0.51321    0.05246    0.92709    1.000
    N3007    N        0.54985    0.01251    0.97789    1.000
    Si3008   Si       0.73419    0.05376    0.92965    1.000
    N3009    N        0.67462    0.00963    0.94851    1.000
    Si3010   Si       0.66010    0.03577    0.91653    1.000
    Si3011   Si       0.67426    0.02241    0.98918    1.000
    N3012    N        0.64198    0.01435    0.88290    1.000
    N3013    N        0.63429    0.06197    0.93965    1.000
    N3014    N        0.69548    0.06262    0.91081    1.000
    N3015    N        0.53382    0.11054    0.08598    1.000
    Si3016   Si       0.57853    0.11091    0.09980    1.000
    Si3017   Si       0.50466    0.08177    0.09808    1.000
    N3018    N        0.55797    0.12004    0.00925    1.000
    Si3019   Si       0.58705    0.09032    0.99592    1.000
    N3020    N        0.58502    0.07096    0.11421    1.000
    N3021    N        0.60402    0.12210    0.06565    1.000
    Si3022   Si       0.64534    0.11444    0.05650    1.000
    Si3023   Si       0.69234    0.07565    0.07561    1.000
    N3024    N        0.65219    0.07087    0.06116    1.000
    N3025    N        0.72167    0.07427    0.04491    1.000
    N3026    N        0.68478    0.12146    0.08137    1.000
    Si3027   Si       0.49492    0.10086    0.16700    1.000
    N3028    N        0.57671    0.10523    0.21213    1.000
    N3029    N        0.53694    0.10095    0.15382    1.000
    Si3030   Si       0.65477    0.10294    0.18554    1.000
    N3031    N        0.63628    0.07092    0.20971    1.000
    Si3032   Si       0.72449    0.10027    0.22823    1.000
    N3033    N        0.69000    0.11697    0.20847    1.000
    N3034    N        0.66564    0.09628    0.14496    1.000
    Si3035   Si       0.52974    0.08943    0.32119    1.000
    N3036    N        0.55995    0.08921    0.29089    1.000
    N3037    N        0.53619    0.08866    0.36555    1.000
    N3038    N        0.49112    0.10932    0.30880    1.000
    N3039    N        0.72937    0.11721    0.26833    1.000
    Si3040   Si       0.69744    0.10348    0.34811    1.000
    N3041    N        0.72938    0.08103    0.32606    1.000
    N3042    N        0.62948    0.07449    0.29695    1.000
    Si3043   Si       0.63766    0.11804    0.29649    1.000
    Si3044   Si       0.73582    0.07582    0.28007    1.000
    N3045    N        0.66580    0.07559    0.35850    1.000
    Si3046   Si       0.49280    0.09475    0.46298    1.000
    N3047    N        0.52057    0.07253    0.48632    1.000
    N3048    N        0.63956    0.11863    0.42480    1.000
    Si3049   Si       0.66083    0.08625    0.40385    1.000
    N3050    N        0.72764    0.08237    0.48446    1.000
    Si3051   Si       0.73761    0.11448    0.40531    1.000
    Si3052   Si       0.63266    0.11087    0.46635    1.000
    N3053    N        0.69623    0.11640    0.39303    1.000
    N3054    N        0.62842    0.06949    0.47920    1.000
    Si3055   Si       0.71485    0.12190    0.47540    1.000
    N3056    N        0.50546    0.09769    0.55337    1.000
    N3057    N        0.57385    0.08566    0.52588    1.000
    Si3058   Si       0.51731    0.11452    0.59343    1.000
    Si3059   Si       0.58353    0.11618    0.55574    1.000
    N3060    N        0.56185    0.11452    0.59377    1.000
    Si3061   Si       0.53172    0.07310    0.52727    1.000
    Si3062   Si       0.59609    0.09681    0.61514    1.000
    N3063    N        0.62210    0.10430    0.57549    1.000
    N3064    N        0.72175    0.09689    0.55942    1.000
    Si3065   Si       0.72999    0.07106    0.52668    1.000
    N3066    N        0.68344    0.12673    0.61650    1.000
    N3067    N        0.58834    0.07124    0.72293    1.000
    Si3068   Si       0.54947    0.07278    0.70420    1.000
    N3069    N        0.51102    0.09471    0.63211    1.000
    N3070    N        0.55017    0.11459    0.68850    1.000
    Si3071   Si       0.51193    0.12210    0.66817    1.000
    N3072    N        0.65622    0.08816    0.73536    1.000
    N3073    N        0.68838    0.08167    0.67226    1.000
    N3074    N        0.62768    0.10740    0.64341    1.000
    Si3075   Si       0.72829    0.09751    0.67129    1.000
    Si3076   Si       0.66604    0.08821    0.63596    1.000
    Si3077   Si       0.61397    0.10181    0.73863    1.000
    N3078    N        0.53619    0.07762    0.80048    1.000
    Si3079   Si       0.51619    0.11598    0.79507    1.000
    N3080    N        0.55372    0.10769    0.86067    1.000
    N3081    N        0.49377    0.11805    0.83141    1.000
    Si3082   Si       0.54800    0.06831    0.84258    1.000
    N3083    N        0.61424    0.10700    0.78241    1.000
    N3084    N        0.68657    0.08209    0.79744    1.000
    Si3085   Si       0.65849    0.10444    0.77550    1.000
    Si3086   Si       0.70287    0.10089    0.83223    1.000
    N3087    N        0.67491    0.11147    0.86475    1.000
    N3088    N        0.73805    0.08232    0.84952    1.000
    N3089    N        0.60380    0.10804    0.90439    1.000
    N3090    N        0.56925    0.07460    0.95984    1.000
    Si3091   Si       0.59515    0.07070    0.92469    1.000
    N3092    N        0.68004    0.06564    0.98783    1.000
    Si3093   Si       0.68766    0.10409    0.90561    1.000
    N3094    N        0.66992    0.12109    0.94027    1.000
    Si3095   Si       0.65305    0.09104    0.96570    1.000
    N3096    N        0.62306    0.11452    0.98742    1.000
    Si3097   Si       0.57947    0.14613    0.03874    1.000
    Si3098   Si       0.51782    0.15211    0.07574    1.000
    N3099    N        0.55196    0.17224    0.05737    1.000
    N3100    N        0.60035    0.17390    0.01438    1.000
    Si3101   Si       0.51895    0.13967    0.00167    1.000
    N3102    N        0.49497    0.14258    0.03742    1.000
    N3103    N        0.52847    0.16935    0.11614    1.000
    N3104    N        0.66198    0.14270    0.02755    1.000
    Si3105   Si       0.69597    0.15352    0.05168    1.000
    N3106    N        0.72716    0.17622    0.03092    1.000
    Si3107   Si       0.50492    0.17729    0.17800    1.000
    N3108    N        0.58819    0.14351    0.12593    1.000
    N3109    N        0.58261    0.16965    0.23442    1.000
    N3110    N        0.54728    0.16757    0.17696    1.000
    Si3111   Si       0.60606    0.13262    0.22828    1.000
    Si3112   Si       0.56386    0.18029    0.13929    1.000
    N3113    N        0.50495    0.12953    0.19917    1.000
    Si3114   Si       0.54780    0.12604    0.18776    1.000
    Si3115   Si       0.73655    0.18166    0.14377    1.000
    N3116    N        0.70204    0.17520    0.23868    1.000
    Si3117   Si       0.68645    0.12873    0.12566    1.000
    N3118    N        0.72636    0.14084    0.13636    1.000
    Si3119   Si       0.66698    0.15140    0.22434    1.000
    N3120    N        0.65945    0.16187    0.13032    1.000
    N3121    N        0.63071    0.13846    0.19128    1.000
    Si3122   Si       0.62207    0.15479    0.15100    1.000
    N3123    N        0.54031    0.14568    0.33248    1.000
    Si3124   Si       0.50505    0.15136    0.30827    1.000
    N3125    N        0.51388    0.15793    0.26523    1.000
    Si3126   Si       0.57445    0.16952    0.31771    1.000
    N3127    N        0.60820    0.14560    0.30987    1.000
    Si3128   Si       0.69001    0.16811    0.31857    1.000
    N3129    N        0.69814    0.17336    0.36228    1.000
    N3130    N        0.64149    0.12915    0.25430    1.000
    N3131    N        0.67611    0.12724    0.31874    1.000
    N3132    N        0.73365    0.16848    0.31331    1.000
    Si3133   Si       0.53697    0.13227    0.37466    1.000
    N3134    N        0.56708    0.13911    0.40777    1.000
    N3135    N        0.49899    0.15315    0.38453    1.000
    Si3136   Si       0.55475    0.14590    0.45162    1.000
    Si3137   Si       0.60992    0.14846    0.41345    1.000
    N3138    N        0.55324    0.17935    0.48116    1.000
    N3139    N        0.59443    0.13371    0.46991    1.000
    N3140    N        0.51580    0.12978    0.44875    1.000
    Si3141   Si       0.48990    0.15618    0.42702    1.000
    N3142    N        0.63335    0.15801    0.37696    1.000
    Si3143   Si       0.67401    0.15563    0.39366    1.000
    N3144    N        0.67697    0.18042    0.42837    1.000
    N3145    N        0.66955    0.12918    0.48412    1.000
    N3146    N        0.57933    0.15734    0.54336    1.000
    N3147    N        0.49668    0.15225    0.60111    1.000
    Si3148   Si       0.58826    0.16596    0.50013    1.000
    N3149    N        0.63186    0.16809    0.60833    1.000
    N3150    N        0.67080    0.14817    0.54948    1.000
    Si3151   Si       0.66307    0.16543    0.50984    1.000
    Si3152   Si       0.71407    0.13927    0.54858    1.000
    Si3153   Si       0.65336    0.13467    0.58573    1.000
    N3154    N        0.72935    0.14680    0.50833    1.000
    N3155    N        0.74119    0.15123    0.57841    1.000
    N3156    N        0.50656    0.16659    0.66821    1.000
    Si3157   Si       0.57660    0.14792    0.70248    1.000
    N3158    N        0.59369    0.16254    0.66527    1.000
    N3159    N        0.55138    0.17532    0.72708    1.000
    N3160    N        0.61305    0.14188    0.72532    1.000
    Si3161   Si       0.63137    0.15110    0.64824    1.000
    N3162    N        0.71850    0.14152    0.67405    1.000
    Si3163   Si       0.69905    0.16012    0.64178    1.000
    N3164    N        0.66411    0.17302    0.66709    1.000
    N3165    N        0.55090    0.14144    0.78992    1.000
    N3166    N        0.52838    0.16765    0.86169    1.000
    Si3167   Si       0.59197    0.13769    0.80406    1.000
    N3168    N        0.60241    0.17697    0.78476    1.000
    Si3169   Si       0.56067    0.18229    0.76921    1.000
    N3170    N        0.60694    0.14510    0.84355    1.000
    Si3171   Si       0.51500    0.12694    0.87025    1.000
    Si3172   Si       0.69019    0.17016    0.79767    1.000
    N3173    N        0.66697    0.14904    0.76971    1.000
    N3174    N        0.71679    0.14083    0.81797    1.000
    Si3175   Si       0.65013    0.14778    0.85650    1.000
    N3176    N        0.66282    0.17923    0.82979    1.000
    Si3177   Si       0.63239    0.16974    0.75180    1.000
    N3178    N        0.52156    0.13702    0.91371    1.000
    N3179    N        0.58144    0.17413    0.90174    1.000
    Si3180   Si       0.58177    0.13527    0.87848    1.000
    Si3181   Si       0.53753    0.17539    0.90349    1.000
    N3182    N        0.53145    0.18252    0.99069    1.000
    N3183    N        0.48696    0.12628    0.97458    1.000
    N3184    N        0.72742    0.12595    0.90707    1.000
    N3185    N        0.64957    0.16913    0.89551    1.000
    N3186    N        0.70563    0.17931    0.94656    1.000
    Si3187   Si       0.66744    0.16273    0.93381    1.000
    Si3188   Si       0.63559    0.15597    0.99641    1.000
    Si3189   Si       0.55322    0.21195    0.07647    1.000
    N3190    N        0.51223    0.22167    0.08373    1.000
    N3191    N        0.57076    0.23196    0.04066    1.000
    Si3192   Si       0.56953    0.20224    0.00726    1.000
    N3193    N        0.57445    0.21622    0.11290    1.000
    Si3194   Si       0.49153    0.19583    0.11729    1.000
    Si3195   Si       0.66988    0.19747    0.10909    1.000
    Si3196   Si       0.71152    0.21679    0.04319    1.000
    N3197    N        0.64438    0.23194    0.11097    1.000
    N3198    N        0.69345    0.22689    0.00215    1.000
    N3199    N        0.68149    0.19277    0.06778    1.000
    N3200    N        0.50493    0.21640    0.15670    1.000
    N3201    N        0.52737    0.21795    0.23254    1.000
    Si3202   Si       0.60646    0.19721    0.20917    1.000
    Si3203   Si       0.60864    0.23013    0.13645    1.000
    N3204    N        0.60594    0.19471    0.16518    1.000
    N3205    N        0.59819    0.23600    0.22490    1.000
    N3206    N        0.70692    0.20921    0.13188    1.000
    N3207    N        0.64562    0.18949    0.22504    1.000
    N3208    N        0.56254    0.20420    0.28852    1.000
    Si3209   Si       0.55180    0.22600    0.35859    1.000
    N3210    N        0.57885    0.19325    0.35171    1.000
    Si3211   Si       0.54663    0.18480    0.25454    1.000
    Si3212   Si       0.64751    0.23291    0.31295    1.000
    N3213    N        0.67160    0.19934    0.29502    1.000
    N3214    N        0.64243    0.22246    0.35508    1.000
    Si3215   Si       0.67579    0.20526    0.25171    1.000
    N3216    N        0.51448    0.21811    0.37701    1.000
    Si3217   Si       0.51290    0.23041    0.41746    1.000
    N3218    N        0.60526    0.19295    0.41965    1.000
    Si3219   Si       0.58904    0.23197    0.42662    1.000
    N3220    N        0.54980    0.23445    0.44510    1.000
    Si3221   Si       0.54434    0.22294    0.48681    1.000
    N3222    N        0.49060    0.19929    0.43687    1.000
    Si3223   Si       0.61517    0.19672    0.37597    1.000
    Si3224   Si       0.70007    0.21608    0.43499    1.000
    N3225    N        0.70662    0.23417    0.39600    1.000
    N3226    N        0.73728    0.20948    0.45524    1.000
    Si3227   Si       0.73383    0.18751    0.49310    1.000
    N3228    N        0.53424    0.20998    0.54987    1.000
    Si3229   Si       0.49639    0.22972    0.53943    1.000
    N3230    N        0.60483    0.21587    0.56583    1.000
    Si3231   Si       0.56778    0.19108    0.56896    1.000
    N3232    N        0.55280    0.18881    0.61080    1.000
    N3233    N        0.50179    0.22837    0.49712    1.000
    Si3234   Si       0.61538    0.22679    0.52440    1.000
    N3235    N        0.62572    0.18720    0.50433    1.000
    N3236    N        0.69202    0.19765    0.50413    1.000
    N3237    N        0.67083    0.22348    0.59297    1.000
    Si3238   Si       0.71207    0.22857    0.60710    1.000
    Si3239   Si       0.63045    0.21156    0.59986    1.000
    Si3240   Si       0.68564    0.23999    0.49979    1.000
    N3241    N        0.55142    0.21870    0.67104    1.000
    Si3242   Si       0.57748    0.19808    0.64463    1.000
    Si3243   Si       0.52512    0.19404    0.69703    1.000
    N3244    N        0.49831    0.22094    0.71507    1.000
    Si3245   Si       0.51335    0.18383    0.62876    1.000
    N3246    N        0.72473    0.19193    0.62997    1.000
    N3247    N        0.65124    0.20333    0.73421    1.000
    N3248    N        0.71574    0.20732    0.69812    1.000
    N3249    N        0.61060    0.22647    0.63598    1.000
    Si3250   Si       0.67384    0.20560    0.69567    1.000
    Si3251   Si       0.74107    0.22968    0.66743    1.000
    N3252    N        0.54114    0.20942    0.79451    1.000
    Si3253   Si       0.52368    0.20253    0.83517    1.000
    N3254    N        0.54231    0.23384    0.86191    1.000
    N3255    N        0.61022    0.21527    0.85277    1.000
    Si3256   Si       0.62836    0.20075    0.81555    1.000
    N3257    N        0.71533    0.20637    0.78660    1.000
    N3258    N        0.64459    0.23644    0.79822    1.000
    Si3259   Si       0.68654    0.24265    0.78885    1.000
    N3260    N        0.51930    0.20843    0.92487    1.000
    N3261    N        0.58185    0.22550    0.97324    1.000
    Si3262   Si       0.50777    0.21201    0.96692    1.000
    Si3263   Si       0.61567    0.19858    0.89303    1.000
    Si3264   Si       0.62125    0.22524    0.95528    1.000
    Si3265   Si       0.71657    0.21634    0.96715    1.000
    N3266    N        0.71389    0.24229    0.93103    1.000
    N3267    N        0.62041    0.23708    0.91417    1.000
    N3268    N        0.63949    0.18423    0.96031    1.000
    Si3269   Si       0.59274    0.26849    0.03431    1.000
    Si3270   Si       0.49610    0.27728    0.00976    1.000
    N3271    N        0.63539    0.26359    0.04206    1.000
    Si3272   Si       0.65558    0.26239    0.08142    1.000
    Si3273   Si       0.66588    0.25969    0.00597    1.000
    N3274    N        0.69962    0.25803    0.07878    1.000
    N3275    N        0.69250    0.29538    0.00892    1.000
    N3276    N        0.64614    0.29828    0.10431    1.000
    Si3277   Si       0.70998    0.25124    0.12267    1.000
    Si3278   Si       0.50746    0.25592    0.17510    1.000
    N3279    N        0.54622    0.26483    0.18715    1.000
    Si3280   Si       0.57848    0.28692    0.16744    1.000
    Si3281   Si       0.55717    0.24915    0.22611    1.000
    N3282    N        0.49571    0.28638    0.14541    1.000
    N3283    N        0.56214    0.29991    0.12850    1.000
    Si3284   Si       0.65205    0.28834    0.14743    1.000
    Si3285   Si       0.72378    0.30101    0.17416    1.000
    N3286    N        0.69497    0.27750    0.15118    1.000
    N3287    N        0.61533    0.26633    0.15749    1.000
    N3288    N        0.62405    0.30023    0.23678    1.000
    N3289    N        0.55681    0.25777    0.32981    1.000
    N3290    N        0.55482    0.27664    0.26039    1.000
    Si3291   Si       0.57349    0.28335    0.36103    1.000
    Si3292   Si       0.57352    0.24785    0.29066    1.000
    N3293    N        0.68228    0.26122    0.32787    1.000
    Si3294   Si       0.72108    0.27030    0.31276    1.000
    N3295    N        0.61697    0.25176    0.28788    1.000
    Si3296   Si       0.70214    0.28049    0.24626    1.000
    N3297    N        0.73489    0.26515    0.27131    1.000
    Si3298   Si       0.67593    0.24772    0.36920    1.000
    N3299    N        0.67172    0.24952    0.24409    1.000
    Si3300   Si       0.62812    0.25843    0.24581    1.000
    N3301    N        0.57938    0.24663    0.38621    1.000
    Si3302   Si       0.58684    0.27961    0.47654    1.000
    Si3303   Si       0.50194    0.29686    0.38818    1.000
    N3304    N        0.49092    0.26848    0.41715    1.000
    N3305    N        0.65879    0.27951    0.39283    1.000
    N3306    N        0.61457    0.26204    0.44464    1.000
    N3307    N        0.68152    0.24999    0.45700    1.000
    Si3308   Si       0.65513    0.27654    0.43581    1.000
    Si3309   Si       0.50088    0.25804    0.60992    1.000
    N3310    N        0.49633    0.26357    0.56691    1.000
    N3311    N        0.52590    0.29443    0.51221    1.000
    N3312    N        0.58091    0.24589    0.50434    1.000
    N3313    N        0.72138    0.25693    0.51864    1.000
    N3314    N        0.64959    0.25143    0.52015    1.000
    Si3315   Si       0.64172    0.29456    0.52177    1.000
    Si3316   Si       0.72411    0.29946    0.51592    1.000
    N3317    N        0.54209    0.26864    0.62291    1.000
    N3318    N        0.59178    0.27370    0.68152    1.000
    Si3319   Si       0.51434    0.26071    0.71806    1.000
    Si3320   Si       0.55498    0.26039    0.66274    1.000
    Si3321   Si       0.58400    0.28323    0.72362    1.000
    N3322    N        0.52200    0.28363    0.68374    1.000
    N3323    N        0.54890    0.26075    0.74164    1.000
    N3324    N        0.65217    0.28227    0.63091    1.000
    Si3325   Si       0.65013    0.24835    0.73032    1.000
    N3326    N        0.65216    0.24344    0.68815    1.000
    N3327    N        0.71510    0.25404    0.64292    1.000
    Si3328   Si       0.69090    0.28965    0.65019    1.000
    Si3329   Si       0.62631    0.26126    0.65938    1.000
    N3330    N        0.61777    0.27163    0.74629    1.000
    Si3331   Si       0.70504    0.30271    0.73865    1.000
    N3332    N        0.58058    0.26228    0.80704    1.000
    N3333    N        0.50777    0.27090    0.80076    1.000
    Si3334   Si       0.54376    0.25229    0.78537    1.000
    Si3335   Si       0.58174    0.24995    0.84937    1.000
    N3336    N        0.59567    0.28712    0.86910    1.000
    Si3337   Si       0.61925    0.27343    0.79033    1.000
    Si3338   Si       0.71708    0.29218    0.84203    1.000
    N3339    N        0.70821    0.25595    0.82196    1.000
    N3340    N        0.68501    0.26642    0.75045    1.000
    Si3341   Si       0.52034    0.24488    0.89900    1.000
    N3342    N        0.54337    0.27239    0.92242    1.000
    Si3343   Si       0.55762    0.26125    0.96525    1.000
    N3344    N        0.51818    0.25117    0.98318    1.000
    N3345    N        0.60036    0.30258    0.93132    1.000
    N3346    N        0.58113    0.28944    0.99436    1.000
    Si3347   Si       0.62358    0.27970    0.90186    1.000
    Si3348   Si       0.61578    0.29859    0.97000    1.000
    N3349    N        0.66520    0.29221    0.90037    1.000
    N3350    N        0.63824    0.26060    0.97367    1.000
    N3351    N        0.72912    0.27902    0.88294    1.000
    Si3352   Si       0.70267    0.28092    0.91727    1.000
    N3353    N        0.53036    0.34123    0.09822    1.000
    Si3354   Si       0.55890    0.31939    0.01949    1.000
    Si3355   Si       0.57237    0.32358    0.09423    1.000
    N3356    N        0.60439    0.35222    0.09260    1.000
    N3357    N        0.51863    0.31541    0.00725    1.000
    Si3358   Si       0.49063    0.35009    0.00876    1.000
    N3359    N        0.57545    0.30289    0.05673    1.000
    N3360    N        0.57562    0.36043    0.00934    1.000
    N3361    N        0.66868    0.34635    0.05207    1.000
    Si3362   Si       0.64486    0.33869    0.08979    1.000
    Si3363   Si       0.67219    0.33470    0.00950    1.000
    N3364    N        0.72951    0.31788    0.07236    1.000
    Si3365   Si       0.70486    0.35428    0.07712    1.000
    N3366    N        0.67775    0.35762    0.11097    1.000
    Si3367   Si       0.52233    0.31915    0.13529    1.000
    N3368    N        0.58713    0.32469    0.18677    1.000
    N3369    N        0.52146    0.34763    0.16930    1.000
    N3370    N        0.54875    0.35356    0.23199    1.000
    Si3371   Si       0.56010    0.35548    0.18954    1.000
    Si3372   Si       0.73630    0.34754    0.22206    1.000
    N3373    N        0.65377    0.32556    0.16818    1.000
    N3374    N        0.72365    0.34245    0.15999    1.000
    Si3375   Si       0.68199    0.35673    0.15366    1.000
    N3376    N        0.71584    0.30779    0.21658    1.000
    Si3377   Si       0.62744    0.32949    0.20217    1.000
    N3378    N        0.64395    0.35818    0.22712    1.000
    N3379    N        0.56282    0.33540    0.29957    1.000
    Si3380   Si       0.59841    0.34121    0.32252    1.000
    N3381    N        0.50129    0.33031    0.26385    1.000
    N3382    N        0.60597    0.30789    0.35079    1.000
    Si3383   Si       0.54452    0.31922    0.26151    1.000
    Si3384   Si       0.64478    0.33065    0.26285    1.000
    Si3385   Si       0.71691    0.33245    0.29321    1.000
    N3386    N        0.68538    0.31265    0.27307    1.000
    N3387    N        0.63486    0.34935    0.30015    1.000
    N3388    N        0.66475    0.34578    0.36376    1.000
    N3389    N        0.73598    0.30975    0.32283    1.000
    Si3390   Si       0.56711    0.32562    0.41860    1.000
    N3391    N        0.49443    0.34255    0.47538    1.000
    N3392    N        0.55930    0.30867    0.45797    1.000
    Si3393   Si       0.53364    0.32845    0.48821    1.000
    N3394    N        0.54415    0.30420    0.38681    1.000
    N3395    N        0.61171    0.32724    0.41691    1.000
    N3396    N        0.73069    0.35922    0.42573    1.000
    N3397    N        0.61619    0.30925    0.49046    1.000
    Si3398   Si       0.63718    0.31632    0.37921    1.000
    Si3399   Si       0.62932    0.33477    0.45494    1.000
    Si3400   Si       0.70836    0.33749    0.45638    1.000
    N3401    N        0.67003    0.31895    0.44939    1.000
    N3402    N        0.73826    0.31113    0.47556    1.000
    N3403    N        0.54897    0.31495    0.57171    1.000
    Si3404   Si       0.58111    0.33517    0.55083    1.000
    N3405    N        0.56063    0.35071    0.51561    1.000
    Si3406   Si       0.55375    0.30885    0.61289    1.000
    Si3407   Si       0.51487    0.30107    0.55302    1.000
    N3408    N        0.62017    0.30859    0.55863    1.000
    N3409    N        0.64742    0.35045    0.60309    1.000
    N3410    N        0.68236    0.31167    0.52052    1.000
    Si3411   Si       0.63230    0.30726    0.60009    1.000
    Si3412   Si       0.68257    0.35424    0.52524    1.000
    Si3413   Si       0.69364    0.35453    0.60318    1.000
    N3414    N        0.59507    0.31793    0.62135    1.000
    N3415    N        0.52454    0.33302    0.63549    1.000
    N3416    N        0.58494    0.32928    0.72274    1.000
    Si3417   Si       0.49646    0.30905    0.66013    1.000
    Si3418   Si       0.61713    0.35320    0.63499    1.000
    Si3419   Si       0.61541    0.35370    0.70441    1.000
    N3420    N        0.63956    0.34342    0.67067    1.000
    N3421    N        0.70896    0.32058    0.62518    1.000
    N3422    N        0.69574    0.30596    0.69401    1.000
    N3423    N        0.65244    0.35243    0.73075    1.000
    Si3424   Si       0.67664    0.34459    0.69432    1.000
    N3425    N        0.51210    0.34014    0.80930    1.000
    Si3426   Si       0.53920    0.34928    0.84559    1.000
    N3427    N        0.52945    0.30847    0.86304    1.000
    N3428    N        0.57943    0.35395    0.83340    1.000
    Si3429   Si       0.60903    0.32291    0.84395    1.000
    Si3430   Si       0.50175    0.30272    0.82945    1.000
    N3431    N        0.68862    0.32541    0.84392    1.000
    Si3432   Si       0.66941    0.33131    0.80354    1.000
    N3433    N        0.70201    0.32631    0.77485    1.000
    N3434    N        0.63342    0.30911    0.80923    1.000
    N3435    N        0.56012    0.34883    0.89901    1.000
    N3436    N        0.49493    0.35319    0.92778    1.000
    Si3437   Si       0.55901    0.30318    0.89624    1.000
    N3438    N        0.71726    0.31140    0.94540    1.000
    N3439    N        0.63221    0.34412    0.87512    1.000
    Si3440   Si       0.71656    0.35331    0.94694    1.000
    Si3441   Si       0.67327    0.33273    0.88321    1.000
    N3442    N        0.63579    0.33086    0.98699    1.000
    N3443    N        0.69650    0.36104    0.90849    1.000
    Si3444   Si       0.72970    0.30100    0.98734    1.000
    N3445    N        0.53682    0.39865    0.05775    1.000
    Si3446   Si       0.50863    0.37050    0.07672    1.000
    Si3447   Si       0.54879    0.39411    0.01834    1.000
    N3448    N        0.49227    0.40520    0.10009    1.000
    N3449    N        0.51471    0.38411    0.99464    1.000
    N3450    N        0.73193    0.38836    0.08280    1.000
    Si3451   Si       0.49999    0.38210    0.18249    1.000
    N3452    N        0.57020    0.39339    0.17198    1.000
    N3453    N        0.48618    0.38884    0.22544    1.000
    N3454    N        0.71155    0.38253    0.23227    1.000
    N3455    N        0.67482    0.39223    0.17476    1.000
    Si3456   Si       0.67180    0.39326    0.21863    1.000
    N3457    N        0.53077    0.39794    0.28416    1.000
    N3458    N        0.58334    0.37810    0.33998    1.000
    Si3459   Si       0.54454    0.37358    0.31881    1.000
    N3460    N        0.51518    0.36576    0.34792    1.000
    Si3461   Si       0.51419    0.37217    0.25213    1.000
    Si3462   Si       0.60627    0.41513    0.33958    1.000
    N3463    N        0.64946    0.40761    0.33874    1.000
    Si3464   Si       0.66334    0.36916    0.32692    1.000
    N3465    N        0.70005    0.37139    0.30420    1.000
    Si3466   Si       0.72745    0.39147    0.27438    1.000
    Si3467   Si       0.53810    0.40157    0.43564    1.000
    N3468    N        0.53341    0.40394    0.47864    1.000
    N3469    N        0.49941    0.39861    0.41631    1.000
    Si3470   Si       0.51650    0.36770    0.39211    1.000
    N3471    N        0.55258    0.36594    0.41469    1.000
    N3472    N        0.71019    0.40818    0.37404    1.000
    N3473    N        0.68274    0.41113    0.43665    1.000
    N3474    N        0.70013    0.36841    0.48821    1.000
    N3475    N        0.62469    0.37634    0.46228    1.000
    Si3476   Si       0.71761    0.39823    0.41523    1.000
    Si3477   Si       0.69553    0.40999    0.47798    1.000
    Si3478   Si       0.57640    0.40180    0.60387    1.000
    Si3479   Si       0.55808    0.39567    0.51328    1.000
    N3480    N        0.58919    0.37236    0.57327    1.000
    N3481    N        0.53327    0.39879    0.60784    1.000
    N3482    N        0.52644    0.41215    0.53935    1.000
    N3483    N        0.59219    0.41918    0.50153    1.000
    Si3484   Si       0.63314    0.37924    0.57310    1.000
    N3485    N        0.64392    0.37087    0.53125    1.000
    Si3486   Si       0.62985    0.39838    0.49902    1.000
    N3487    N        0.70601    0.36416    0.56152    1.000
    N3488    N        0.70445    0.38981    0.62387    1.000
    N3489    N        0.64485    0.41606    0.59173    1.000
    N3490    N        0.53431    0.39264    0.67507    1.000
    Si3491   Si       0.51623    0.37703    0.63957    1.000
    Si3492   Si       0.57351    0.40811    0.67405    1.000
    Si3493   Si       0.51401    0.40244    0.71214    1.000
    N3494    N        0.59430    0.39150    0.71109    1.000
    N3495    N        0.59426    0.39002    0.64128    1.000
    Si3496   Si       0.57286    0.36778    0.74159    1.000
    N3497    N        0.71274    0.36669    0.68792    1.000
    Si3498   Si       0.71632    0.40381    0.66420    1.000
    Si3499   Si       0.58797    0.39088    0.81330    1.000
    N3500    N        0.60047    0.37520    0.77457    1.000
    N3501    N        0.54828    0.41027    0.80790    1.000
    Si3502   Si       0.50411    0.36618    0.77547    1.000
    N3503    N        0.51624    0.38220    0.86320    1.000
    N3504    N        0.53306    0.38466    0.74762    1.000
    Si3505   Si       0.64111    0.38281    0.76143    1.000
    Si3506   Si       0.68979    0.39917    0.81942    1.000
    N3507    N        0.67470    0.40509    0.85961    1.000
    N3508    N        0.66373    0.37444    0.79725    1.000
    N3509    N        0.72904    0.38062    0.81519    1.000
    Si3510   Si       0.60230    0.36381    0.89872    1.000
    Si3511   Si       0.50287    0.41009    0.96320    1.000
    Si3512   Si       0.52589    0.37244    0.90703    1.000
    N3513    N        0.52868    0.40963    0.92840    1.000
    N3514    N        0.60608    0.37303    0.94250    1.000
    Si3515   Si       0.61087    0.36677    0.98508    1.000
    N3516    N        0.61651    0.40792    0.88997    1.000
    N3517    N        0.69162    0.36441    0.98082    1.000
    Si3518   Si       0.67390    0.40460    0.97926    1.000
    N3519    N        0.66631    0.41428    0.93647    1.000
    N3520    N        0.63281    0.40379    0.99468    1.000
    Si3521   Si       0.68926    0.40398    0.90076    1.000
    Si3522   Si       0.62294    0.41328    0.93129    1.000
    Si3523   Si       0.52462    0.43085    0.08397    1.000
    N3524    N        0.56987    0.43334    0.00866    1.000
    N3525    N        0.52172    0.46730    0.05912    1.000
    Si3526   Si       0.55379    0.46844    0.03135    1.000
    N3527    N        0.55262    0.44101    0.11469    1.000
    N3528    N        0.58762    0.47333    0.05730    1.000
    Si3529   Si       0.57930    0.47400    0.09887    1.000
    Si3530   Si       0.65991    0.46662    0.10157    1.000
    N3531    N        0.72386    0.44995    0.05531    1.000
    Si3532   Si       0.68928    0.46045    0.02798    1.000
    Si3533   Si       0.72406    0.43072    0.09293    1.000
    N3534    N        0.65839    0.46223    0.05898    1.000
    N3535    N        0.68882    0.43802    0.11669    1.000
    N3536    N        0.61927    0.46739    0.11594    1.000
    N3537    N        0.70299    0.42795    0.00024    1.000
    N3538    N        0.54175    0.46083    0.24139    1.000
    N3539    N        0.57850    0.46108    0.17854    1.000
    Si3540   Si       0.55359    0.43075    0.15864    1.000
    N3541    N        0.51089    0.42452    0.17178    1.000
    N3542    N        0.61052    0.47201    0.23565    1.000
    Si3543   Si       0.64671    0.46282    0.21486    1.000
    N3544    N        0.65296    0.42614    0.23815    1.000
    Si3545   Si       0.68365    0.43232    0.15956    1.000
    N3546    N        0.72073    0.44705    0.18013    1.000
    N3547    N        0.65175    0.45852    0.17357    1.000
    Si3548   Si       0.52706    0.43973    0.27760    1.000
    N3549    N        0.59536    0.43374    0.30033    1.000
    N3550    N        0.53329    0.46409    0.31306    1.000
    N3551    N        0.58647    0.44667    0.36243    1.000
    Si3552   Si       0.57651    0.46601    0.32412    1.000
    Si3553   Si       0.50170    0.47391    0.34015    1.000
    N3554    N        0.71503    0.43427    0.27639    1.000
    N3555    N        0.71612    0.45900    0.34039    1.000
    Si3556   Si       0.68051    0.43395    0.35569    1.000
    Si3557   Si       0.62344    0.44307    0.26831    1.000
    N3558    N        0.65288    0.46737    0.29076    1.000
    Si3559   Si       0.69019    0.46678    0.26759    1.000
    Si3560   Si       0.58664    0.44323    0.46569    1.000
    N3561    N        0.56433    0.43394    0.42860    1.000
    Si3562   Si       0.56229    0.46070    0.39444    1.000
    N3563    N        0.52305    0.46968    0.37834    1.000
    N3564    N        0.66080    0.45554    0.38682    1.000
    N3565    N        0.62264    0.45695    0.44470    1.000
    Si3566   Si       0.73091    0.46349    0.44528    1.000
    Si3567   Si       0.66064    0.44806    0.42960    1.000
    N3568    N        0.72898    0.43647    0.48209    1.000
    Si3569   Si       0.73716    0.44539    0.37839    1.000
    N3570    N        0.58181    0.44203    0.59271    1.000
    N3571    N        0.51751    0.46802    0.58474    1.000
    N3572    N        0.50363    0.46674    0.51407    1.000
    Si3573   Si       0.51408    0.42325    0.57826    1.000
    Si3574   Si       0.49972    0.42159    0.50465    1.000
    Si3575   Si       0.55673    0.47516    0.60599    1.000
    Si3576   Si       0.66356    0.46264    0.52191    1.000
    Si3577   Si       0.62304    0.45578    0.59221    1.000
    N3578    N        0.69183    0.46247    0.60639    1.000
    N3579    N        0.70441    0.46214    0.54143    1.000
    N3580    N        0.63446    0.47211    0.55387    1.000
    N3581    N        0.66078    0.42753    0.49851    1.000
    N3582    N        0.58706    0.44978    0.68703    1.000
    N3583    N        0.53205    0.44131    0.71787    1.000
    Si3584   Si       0.60606    0.43392    0.72863    1.000
    Si3585   Si       0.54653    0.46941    0.68715    1.000
    N3586    N        0.53795    0.46858    0.64579    1.000
    N3587    N        0.64321    0.42286    0.74747    1.000
    Si3588   Si       0.68945    0.46343    0.68778    1.000
    N3589    N        0.68018    0.43012    0.66333    1.000
    Si3590   Si       0.67887    0.42481    0.61885    1.000
    N3591    N        0.70621    0.45029    0.72655    1.000
    N3592    N        0.62431    0.48126    0.62765    1.000
    N3593    N        0.51167    0.45936    0.77718    1.000
    N3594    N        0.58254    0.44629    0.76513    1.000
    Si3595   Si       0.59541    0.46270    0.80608    1.000
    Si3596   Si       0.54201    0.42996    0.76325    1.000
    N3597    N        0.60984    0.42802    0.82803    1.000
    N3598    N        0.54557    0.44470    0.86971    1.000
    Si3599   Si       0.52256    0.41851    0.84092    1.000
    Si3600   Si       0.67385    0.45144    0.75797    1.000
    N3601    N        0.68898    0.43622    0.79611    1.000
    Si3602   Si       0.63885    0.43047    0.86085    1.000
    Si3603   Si       0.60898    0.44184    0.99331    1.000
    Si3604   Si       0.52693    0.44936    0.91095    1.000
    N3605    N        0.60307    0.44536    0.94968    1.000
    N3606    N        0.50832    0.45348    0.97409    1.000
    N3607    N        0.65559    0.46455    0.88191    1.000
    Si3608   Si       0.69130    0.47709    0.90303    1.000
    N3609    N        0.71593    0.44011    0.89863    1.000
    N3610    N        0.56835    0.51243    0.11285    1.000
    N3611    N        0.55204    0.50110    0.00376    1.000
    N3612    N        0.50072    0.53451    0.08199    1.000
    N3613    N        0.67962    0.50674    0.10994    1.000
    N3614    N        0.63326    0.52831    0.05839    1.000
    Si3615   Si       0.62621    0.48912    0.04386    1.000
    N3616    N        0.69311    0.49315    0.00098    1.000
    N3617    N        0.63147    0.47785    0.00292    1.000
    Si3618   Si       0.67189    0.53678    0.07775    1.000
    Si3619   Si       0.50325    0.48151    0.23755    1.000
    N3620    N        0.56176    0.52388    0.21132    1.000
    N3621    N        0.60878    0.51983    0.16329    1.000
    N3622    N        0.49501    0.48678    0.19431    1.000
    Si3623   Si       0.57201    0.48137    0.21695    1.000
    N3624    N        0.50357    0.52200    0.24915    1.000
    Si3625   Si       0.66349    0.52816    0.24092    1.000
    Si3626   Si       0.71783    0.52008    0.12922    1.000
    Si3627   Si       0.61357    0.47650    0.15712    1.000
    N3628    N        0.68104    0.48862    0.22951    1.000
    Si3629   Si       0.71885    0.48449    0.20273    1.000
    N3630    N        0.73029    0.51307    0.17023    1.000
    N3631    N        0.59832    0.50279    0.32006    1.000
    N3632    N        0.73757    0.52993    0.34668    1.000
    Si3633   Si       0.63958    0.50265    0.31150    1.000
    N3634    N        0.71492    0.49623    0.28858    1.000
    N3635    N        0.66888    0.51528    0.33840    1.000
    Si3636   Si       0.70980    0.50134    0.33147    1.000
    N3637    N        0.64187    0.53106    0.27954    1.000
    N3638    N        0.57524    0.50091    0.41023    1.000
    Si3639   Si       0.60353    0.49946    0.44417    1.000
    N3640    N        0.51008    0.51851    0.47664    1.000
    N3641    N        0.57789    0.48536    0.47694    1.000
    Si3642   Si       0.55012    0.51205    0.49278    1.000
    N3643    N        0.68806    0.47639    0.44908    1.000
    N3644    N        0.73372    0.48368    0.40160    1.000
    N3645    N        0.63742    0.52533    0.44239    1.000
    Si3646   Si       0.67257    0.51458    0.46709    1.000
    N3647    N        0.57152    0.51684    0.60127    1.000
    N3648    N        0.54853    0.51412    0.53644    1.000
    Si3649   Si       0.51185    0.49376    0.54792    1.000
    N3650    N        0.50122    0.52172    0.61774    1.000
    Si3651   Si       0.57307    0.53843    0.56216    1.000
    N3652    N        0.66125    0.50396    0.50636    1.000
    Si3653   Si       0.64135    0.51310    0.54340    1.000
    Si3654   Si       0.70315    0.48953    0.57595    1.000
    N3655    N        0.67396    0.52272    0.57289    1.000
    N3656    N        0.53546    0.51017    0.70257    1.000
    N3657    N        0.59270    0.51980    0.66773    1.000
    Si3658   Si       0.51052    0.52879    0.73288    1.000
    Si3659   Si       0.60860    0.52199    0.62304    1.000
    Si3660   Si       0.49942    0.47883    0.62601    1.000
    N3661    N        0.71742    0.49263    0.67351    1.000
    Si3662   Si       0.70085    0.53154    0.68391    1.000
    Si3663   Si       0.65455    0.51726    0.72754    1.000
    N3664    N        0.65162    0.48576    0.69568    1.000
    N3665    N        0.69669    0.53072    0.72824    1.000
    Si3666   Si       0.61631    0.48388    0.67144    1.000
    Si3667   Si       0.52386    0.49608    0.79556    1.000
    Si3668   Si       0.55914    0.48554    0.86040    1.000
    N3669    N        0.56032    0.48455    0.81628    1.000
    N3670    N        0.53405    0.52964    0.76916    1.000
    N3671    N        0.48950    0.51204    0.81562    1.000
    N3672    N        0.69863    0.50487    0.82146    1.000
    Si3673   Si       0.66042    0.51100    0.80233    1.000
    N3674    N        0.62800    0.49077    0.82038    1.000
    N3675    N        0.65536    0.49169    0.76374    1.000
    Si3676   Si       0.62821    0.50598    0.86312    1.000
    Si3677   Si       0.70311    0.52804    0.85701    1.000
    Si3678   Si       0.73264    0.53070    0.75143    1.000
    Si3679   Si       0.73686    0.48615    0.81445    1.000
    N3680    N        0.52205    0.50786    0.87087    1.000
    Si3681   Si       0.53027    0.48916    0.96890    1.000
    N3682    N        0.59499    0.48707    0.88415    1.000
    N3683    N        0.50844    0.52451    0.95357    1.000
    Si3684   Si       0.52910    0.52582    0.91260    1.000
    N3685    N        0.54794    0.48307    0.92913    1.000
    Si3686   Si       0.59154    0.48050    0.92618    1.000
    N3687    N        0.61589    0.51115    0.94796    1.000
    N3688    N        0.68181    0.50437    0.93881    1.000
    Si3689   Si       0.65287    0.50738    0.97763    1.000
    N3690    N        0.66398    0.53042    0.87610    1.000
    Si3691   Si       0.71638    0.50038    0.96717    1.000
    N3692    N        0.72290    0.50075    0.88451    1.000
    N3693    N        0.56580    0.54765    0.05457    1.000
    Si3694   Si       0.60601    0.56104    0.06378    1.000
    Si3695   Si       0.56043    0.54626    0.01059    1.000
    Si3696   Si       0.49778    0.56676    0.04521    1.000
    Si3697   Si       0.54319    0.54235    0.09123    1.000
    N3698    N        0.60614    0.57040    0.10620    1.000
    N3699    N        0.52520    0.57211    0.00185    1.000
    N3700    N        0.52019    0.59581    0.06920    1.000
    N3701    N        0.61825    0.59212    0.03824    1.000
    N3702    N        0.67265    0.57524    0.09590    1.000
    Si3703   Si       0.69795    0.55722    0.00424    1.000
    N3704    N        0.70143    0.54196    0.04456    1.000
    Si3705   Si       0.70951    0.59434    0.10952    1.000
    N3706    N        0.54316    0.56735    0.12614    1.000
    Si3707   Si       0.59850    0.54215    0.19709    1.000
    Si3708   Si       0.52446    0.54776    0.21802    1.000
    N3709    N        0.58954    0.57944    0.17648    1.000
    Si3710   Si       0.58302    0.55146    0.13978    1.000
    N3711    N        0.49273    0.55701    0.18961    1.000
    N3712    N        0.52937    0.57905    0.24773    1.000
    N3713    N        0.72176    0.56597    0.13996    1.000
    N3714    N        0.63141    0.55252    0.22091    1.000
    Si3715   Si       0.65388    0.58843    0.23200    1.000
    N3716    N        0.69033    0.56065    0.23404    1.000
    Si3717   Si       0.73086    0.57362    0.24555    1.000
    N3718    N        0.58037    0.56266    0.29101    1.000
    N3719    N        0.51378    0.57017    0.30721    1.000
    Si3720   Si       0.50922    0.54842    0.34327    1.000
    Si3721   Si       0.49409    0.55795    0.27127    1.000
    Si3722   Si       0.54686    0.59014    0.28558    1.000
    Si3723   Si       0.58479    0.54255    0.33006    1.000
    N3724    N        0.55002    0.53962    0.35629    1.000
    Si3725   Si       0.62369    0.56942    0.29165    1.000
    N3726    N        0.69224    0.58118    0.32284    1.000
    Si3727   Si       0.66518    0.55694    0.34538    1.000
    N3728    N        0.62436    0.56441    0.33497    1.000
    Si3729   Si       0.73560    0.57211    0.33527    1.000
    Si3730   Si       0.57393    0.59125    0.47530    1.000
    N3731    N        0.56503    0.54762    0.47165    1.000
    Si3732   Si       0.52155    0.55765    0.45692    1.000
    N3733    N        0.59986    0.56599    0.40135    1.000
    N3734    N        0.53602    0.56806    0.41691    1.000
    Si3735   Si       0.56472    0.54040    0.39765    1.000
    N3736    N        0.70393    0.54302    0.46266    1.000
    Si3737   Si       0.69077    0.58764    0.46687    1.000
    N3738    N        0.67347    0.55961    0.38851    1.000
    Si3739   Si       0.69896    0.59200    0.39660    1.000
    Si3740   Si       0.64114    0.56133    0.41711    1.000
    N3741    N        0.65393    0.59531    0.43944    1.000
    N3742    N        0.54967    0.57075    0.58081    1.000
    Si3743   Si       0.54034    0.54462    0.61560    1.000
    N3744    N        0.61238    0.54458    0.54623    1.000
    N3745    N        0.73057    0.57057    0.54876    1.000
    Si3746   Si       0.63055    0.58157    0.52890    1.000
    Si3747   Si       0.66824    0.56084    0.59163    1.000
    N3748    N        0.70911    0.56507    0.60907    1.000
    N3749    N        0.66523    0.57999    0.50349    1.000
    N3750    N        0.65957    0.59319    0.56276    1.000
    N3751    N        0.63379    0.55670    0.61966    1.000
    N3752    N        0.56938    0.57446    0.71492    1.000
    N3753    N        0.54539    0.56684    0.65229    1.000
    N3754    N        0.50279    0.56686    0.71392    1.000
    Si3755   Si       0.56053    0.54293    0.68544    1.000
    Si3756   Si       0.61050    0.58500    0.72268    1.000
    Si3757   Si       0.53430    0.59783    0.72189    1.000
    Si3758   Si       0.64261    0.57900    0.65654    1.000
    N3759    N        0.62884    0.54933    0.74155    1.000
    N3760    N        0.72815    0.56469    0.67372    1.000
    N3761    N        0.66059    0.54834    0.67858    1.000
    Si3762   Si       0.71413    0.59021    0.64198    1.000
    N3763    N        0.52744    0.56857    0.82739    1.000
    N3764    N        0.58794    0.56879    0.79854    1.000
    Si3765   Si       0.54617    0.56676    0.78521    1.000
    Si3766   Si       0.59034    0.57999    0.84203    1.000
    Si3767   Si       0.50227    0.54218    0.85043    1.000
    N3768    N        0.60488    0.54411    0.85688    1.000
    Si3769   Si       0.62654    0.57252    0.78097    1.000
    N3770    N        0.66006    0.55575    0.80066    1.000
    Si3771   Si       0.69660    0.58164    0.81018    1.000
    N3772    N        0.72341    0.56486    0.84546    1.000
    N3773    N        0.73196    0.56372    0.78214    1.000
    N3774    N        0.56344    0.55077    0.91827    1.000
    N3775    N        0.50906    0.56642    0.89124    1.000
    Si3776   Si       0.59936    0.54984    0.94362    1.000
    N3777    N        0.59181    0.56230    0.98545    1.000
    Si3778   Si       0.54515    0.58796    0.90657    1.000
    Si3779   Si       0.49036    0.54903    0.98367    1.000
    N3780    N        0.70285    0.56877    0.91223    1.000
    Si3781   Si       0.66548    0.54380    0.91659    1.000
    N3782    N        0.65733    0.54943    0.99084    1.000
    N3783    N        0.72568    0.54371    0.97424    1.000
    Si3784   Si       0.73765    0.56918    0.94023    1.000
    N3785    N        0.63307    0.56850    0.92680    1.000
    Si3786   Si       0.62774    0.58252    0.99649    1.000
    N3787    N        0.54664    0.64124    0.11463    1.000
    Si3788   Si       0.52209    0.60492    0.11368    1.000
    N3789    N        0.49876    0.63377    0.00454    1.000
    Si3790   Si       0.62061    0.63441    0.04972    1.000
    N3791    N        0.63274    0.63824    0.09017    1.000
    N3792    N        0.70283    0.60213    0.00380    1.000
    Si3793   Si       0.63776    0.60045    0.10997    1.000
    N3794    N        0.70305    0.63530    0.12263    1.000
    N3795    N        0.52046    0.62180    0.16866    1.000
    N3796    N        0.58773    0.65224    0.17040    1.000
    Si3797   Si       0.61135    0.61615    0.17952    1.000
    N3798    N        0.64237    0.61636    0.14972    1.000
    N3799    N        0.63817    0.62434    0.21352    1.000
    Si3800   Si       0.67310    0.64767    0.15094    1.000
    N3801    N        0.55446    0.62906    0.30064    1.000
    Si3802   Si       0.54838    0.64525    0.34266    1.000
    N3803    N        0.72087    0.60820    0.27047    1.000
    Si3804   Si       0.72567    0.63704    0.36247    1.000
    Si3805   Si       0.68333    0.61580    0.29568    1.000
    N3806    N        0.65727    0.64608    0.32096    1.000
    Si3807   Si       0.64884    0.64650    0.36420    1.000
    N3808    N        0.73838    0.64942    0.32433    1.000
    N3809    N        0.64925    0.60010    0.27441    1.000
    N3810    N        0.55020    0.61802    0.37605    1.000
    N3811    N        0.58705    0.61622    0.44315    1.000
    Si3812   Si       0.58418    0.60721    0.40003    1.000
    N3813    N        0.49578    0.62762    0.42049    1.000
    Si3814   Si       0.51494    0.59808    0.39397    1.000
    N3815    N        0.53151    0.59831    0.48085    1.000
    Si3816   Si       0.63055    0.63041    0.43591    1.000
    N3817    N        0.68467    0.62697    0.37800    1.000
    N3818    N        0.71704    0.60528    0.43469    1.000
    N3819    N        0.61877    0.63348    0.39250    1.000
    N3820    N        0.73811    0.59543    0.37225    1.000
    N3821    N        0.50163    0.62563    0.54599    1.000
    Si3822   Si       0.58513    0.64153    0.52690    1.000
    Si3823   Si       0.51317    0.62941    0.50335    1.000
    N3824    N        0.56967    0.64689    0.56733    1.000
    N3825    N        0.59215    0.60097    0.51289    1.000
    Si3826   Si       0.51986    0.59896    0.57855    1.000
    Si3827   Si       0.59518    0.64980    0.60422    1.000
    N3828    N        0.51600    0.61647    0.61764    1.000
    Si3829   Si       0.65584    0.63783    0.55968    1.000
    N3830    N        0.69900    0.64173    0.54941    1.000
    N3831    N        0.63778    0.64620    0.59698    1.000
    N3832    N        0.71867    0.61058    0.49943    1.000
    Si3833   Si       0.71504    0.65296    0.50872    1.000
    Si3834   Si       0.69692    0.59351    0.53413    1.000
    N3835    N        0.62823    0.65271    0.52748    1.000
    Si3836   Si       0.54412    0.60981    0.64951    1.000
    N3837    N        0.58077    0.62948    0.63875    1.000
    N3838    N        0.52886    0.62606    0.68759    1.000
    Si3839   Si       0.60758    0.64567    0.67075    1.000
    Si3840   Si       0.50341    0.65490    0.70599    1.000
    Si3841   Si       0.66506    0.64630    0.62990    1.000
    N3842    N        0.67376    0.60789    0.64602    1.000
    N3843    N        0.61908    0.60498    0.68502    1.000
    Si3844   Si       0.52878    0.60993    0.84031    1.000
    N3845    N        0.54234    0.64356    0.81770    1.000
    Si3846   Si       0.52574    0.64566    0.77820    1.000
    N3847    N        0.53232    0.60390    0.76502    1.000
    N3848    N        0.61615    0.61618    0.84677    1.000
    N3849    N        0.56091    0.60336    0.86928    1.000
    N3850    N        0.62033    0.61095    0.75749    1.000
    Si3851   Si       0.65223    0.63631    0.83714    1.000
    N3852    N        0.69554    0.61228    0.77559    1.000
    N3853    N        0.68441    0.60992    0.84128    1.000
    Si3854   Si       0.62979    0.65224    0.76290    1.000
    Si3855   Si       0.73808    0.60646    0.76799    1.000
    Si3856   Si       0.68661    0.65340    0.76988    1.000
    Si3857   Si       0.58994    0.63447    0.87671    1.000
    N3858    N        0.60166    0.62964    0.91730    1.000
    N3859    N        0.54084    0.61535    0.94139    1.000
    Si3860   Si       0.57209    0.64468    0.94652    1.000
    Si3861   Si       0.53330    0.61313    0.98755    1.000
    N3862    N        0.56787    0.64079    0.98982    1.000
    N3863    N        0.67057    0.62473    0.90108    1.000
    Si3864   Si       0.73814    0.62496    0.99100    1.000
    Si3865   Si       0.67493    0.63593    0.99430    1.000
    N3866    N        0.64371    0.61496    0.97246    1.000
    Si3867   Si       0.70287    0.59832    0.88021    1.000
    Si3868   Si       0.63857    0.61234    0.92798    1.000
    N3869    N        0.53515    0.69675    0.07286    1.000
    N3870    N        0.59648    0.69680    0.10618    1.000
    Si3871   Si       0.57531    0.67812    0.01533    1.000
    Si3872   Si       0.56482    0.67073    0.08654    1.000
    N3873    N        0.54060    0.70111    0.00358    1.000
    N3874    N        0.60804    0.70733    0.01271    1.000
    N3875    N        0.58363    0.65585    0.05129    1.000
    Si3876   Si       0.64654    0.69602    0.03175    1.000
    Si3877   Si       0.63462    0.67970    0.10155    1.000
    N3878    N        0.72717    0.69124    0.07407    1.000
    Si3879   Si       0.72862    0.66755    0.10807    1.000
    N3880    N        0.65146    0.70868    0.07288    1.000
    N3881    N        0.65144    0.65359    0.02562    1.000
    N3882    N        0.52939    0.69329    0.15885    1.000
    Si3883   Si       0.60533    0.70457    0.23918    1.000
    N3884    N        0.49152    0.70423    0.23844    1.000
    N3885    N        0.56827    0.71105    0.22062    1.000
    Si3886   Si       0.61376    0.68904    0.16987    1.000
    Si3887   Si       0.54633    0.65355    0.15625    1.000
    Si3888   Si       0.72082    0.69278    0.18721    1.000
    N3889    N        0.72990    0.69428    0.14433    1.000
    Si3890   Si       0.66165    0.66042    0.21967    1.000
    N3891    N        0.69314    0.66007    0.18870    1.000
    N3892    N        0.64790    0.68360    0.14131    1.000
    N3893    N        0.63246    0.69187    0.20856    1.000
    N3894    N        0.57728    0.67707    0.33782    1.000
    N3895    N        0.51227    0.66840    0.34332    1.000
    N3896    N        0.54975    0.69927    0.28373    1.000
    Si3897   Si       0.57607    0.66585    0.29225    1.000
    Si3898   Si       0.50428    0.70867    0.36042    1.000
    N3899    N        0.61276    0.67699    0.27539    1.000
    Si3900   Si       0.65373    0.67645    0.29213    1.000
    N3901    N        0.67812    0.66708    0.25863    1.000
    N3902    N        0.50767    0.69504    0.40350    1.000
    Si3903   Si       0.54018    0.70138    0.49236    1.000
    N3904    N        0.56306    0.70741    0.45402    1.000
    N3905    N        0.50139    0.70851    0.46954    1.000
    N3906    N        0.64445    0.66811    0.45023    1.000
    Si3907   Si       0.65742    0.69784    0.41972    1.000
    N3908    N        0.69942    0.71302    0.42902    1.000
    N3909    N        0.73577    0.66356    0.39423    1.000
    Si3910   Si       0.72828    0.70696    0.39702    1.000
    Si3911   Si       0.64239    0.67935    0.49312    1.000
    Si3912   Si       0.70980    0.70350    0.47048    1.000
    N3913    N        0.65824    0.68827    0.37842    1.000
    N3914    N        0.68376    0.68226    0.50021    1.000
    N3915    N        0.51292    0.69020    0.58093    1.000
    N3916    N        0.54470    0.66232    0.51193    1.000
    N3917    N        0.58998    0.69098    0.61747    1.000
    Si3918   Si       0.53066    0.66232    0.55422    1.000
    Si3919   Si       0.72118    0.66589    0.57819    1.000
    N3920    N        0.71374    0.70864    0.56992    1.000
    N3921    N        0.70470    0.65973    0.61779    1.000
    Si3922   Si       0.57618    0.70790    0.65574    1.000
    N3923    N        0.58392    0.67945    0.68922    1.000
    Si3924   Si       0.56789    0.68491    0.72771    1.000
    N3925    N        0.52951    0.66683    0.74016    1.000
    N3926    N        0.53575    0.71467    0.65266    1.000
    N3927    N        0.71638    0.66419    0.68929    1.000
    Si3928   Si       0.67459    0.67879    0.69461    1.000
    N3929    N        0.66082    0.66119    0.73330    1.000
    Si3930   Si       0.73481    0.65820    0.64883    1.000
    N3931    N        0.64690    0.66587    0.66192    1.000
    Si3932   Si       0.54637    0.68085    0.83873    1.000
    N3933    N        0.59463    0.67659    0.76107    1.000
    N3934    N        0.50460    0.69284    0.84500    1.000
    N3935    N        0.58081    0.67530    0.86315    1.000
    N3936    N        0.55672    0.70870    0.80704    1.000
    Si3937   Si       0.61584    0.70109    0.86055    1.000
    Si3938   Si       0.67177    0.69509    0.82645    1.000
    N3939    N        0.65152    0.67410    0.86139    1.000
    N3940    N        0.71201    0.67443    0.82543    1.000
    N3941    N        0.72694    0.66739    0.75927    1.000
    N3942    N        0.65319    0.65997    0.79877    1.000
    Si3943   Si       0.73211    0.66181    0.86227    1.000
    N3944    N        0.57094    0.68644    0.94296    1.000
    N3945    N        0.50224    0.68873    0.95085    1.000
    Si3946   Si       0.53976    0.70892    0.96003    1.000
    Si3947   Si       0.60859    0.70507    0.93226    1.000
    Si3948   Si       0.48891    0.67428    0.98962    1.000
    Si3949   Si       0.71135    0.70435    0.98698    1.000
    N3950    N        0.71151    0.66134    0.98572    1.000
    N3951    N        0.64415    0.68109    0.93558    1.000
    Si3952   Si       0.67002    0.67037    0.90189    1.000
    N3953    N        0.71212    0.68286    0.89348    1.000
    N3954    N        0.51840    0.75520    0.05537    1.000
    N3955    N        0.56648    0.75603    0.09915    1.000
    Si3956   Si       0.52883    0.73420    0.09270    1.000
    Si3957   Si       0.60215    0.73874    0.11969    1.000
    N3958    N        0.49801    0.74447    0.12089    1.000
    Si3959   Si       0.51814    0.71514    0.03731    1.000
    N3960    N        0.70340    0.75192    0.11181    1.000
    Si3961   Si       0.66796    0.74709    0.08653    1.000
    N3962    N        0.63383    0.76551    0.10727    1.000
    Si3963   Si       0.67060    0.76379    0.01201    1.000
    N3964    N        0.67456    0.72070    0.00679    1.000
    N3965    N        0.59621    0.73150    0.16209    1.000
    N3966    N        0.52607    0.75438    0.18646    1.000
    Si3967   Si       0.50428    0.72663    0.16013    1.000
    Si3968   Si       0.56757    0.74372    0.19186    1.000
    Si3969   Si       0.72455    0.73781    0.14538    1.000
    N3970    N        0.71028    0.73937    0.18477    1.000
    Si3971   Si       0.71027    0.76846    0.21682    1.000
    N3972    N        0.53437    0.73764    0.34824    1.000
    N3973    N        0.58381    0.75585    0.31618    1.000
    N3974    N        0.53894    0.75907    0.25529    1.000
    Si3975   Si       0.57835    0.76526    0.27129    1.000
    Si3976   Si       0.56310    0.71770    0.32152    1.000
    Si3977   Si       0.56346    0.77176    0.35315    1.000
    N3978    N        0.61441    0.74314    0.25594    1.000
    Si3979   Si       0.53248    0.71515    0.24761    1.000
    Si3980   Si       0.72856    0.76257    0.35257    1.000
    N3981    N        0.64135    0.75405    0.35752    1.000
    Si3982   Si       0.70246    0.73909    0.28809    1.000
    N3983    N        0.70934    0.72609    0.36183    1.000
    Si3984   Si       0.66675    0.71898    0.35092    1.000
    N3985    N        0.68488    0.75502    0.24937    1.000
    N3986    N        0.66927    0.71479    0.30701    1.000
    N3987    N        0.73654    0.71214    0.28657    1.000
    N3988    N        0.59416    0.77372    0.45537    1.000
    Si3989   Si       0.52636    0.71563    0.43379    1.000
    Si3990   Si       0.60087    0.72981    0.45687    1.000
    N3991    N        0.52494    0.75801    0.43122    1.000
    N3992    N        0.58621    0.76959    0.38953    1.000
    N3993    N        0.63039    0.72960    0.42578    1.000
    Si3994   Si       0.62878    0.76316    0.39894    1.000
    N3995    N        0.61686    0.71717    0.49633    1.000
    Si3996   Si       0.51661    0.74947    0.54374    1.000
    N3997    N        0.53585    0.75322    0.58289    1.000
    Si3998   Si       0.59421    0.74042    0.52578    1.000
    N3999    N        0.55099    0.73136    0.52073    1.000
    Si4000   Si       0.52262    0.72527    0.61127    1.000
    N4001    N        0.60979    0.74454    0.56810    1.000
    Si4002   Si       0.61330    0.72633    0.60763    1.000
    Si4003   Si       0.69777    0.73587    0.59871    1.000
    N4004    N        0.65679    0.72807    0.61394    1.000
    Si4005   Si       0.73884    0.71790    0.53434    1.000
    N4006    N        0.71867    0.73571    0.50050    1.000
    N4007    N        0.56226    0.72878    0.72823    1.000
    Si4008   Si       0.52501    0.74910    0.72949    1.000
    N4009    N        0.59809    0.74488    0.64468    1.000
    N4010    N        0.49423    0.75133    0.70158    1.000
    Si4011   Si       0.49439    0.72319    0.66803    1.000
    Si4012   Si       0.58374    0.77191    0.73967    1.000
    N4013    N        0.71408    0.73584    0.64000    1.000
    Si4014   Si       0.64517    0.74603    0.71971    1.000
    Si4015   Si       0.67312    0.74048    0.65436    1.000
    N4016    N        0.66850    0.72058    0.69215    1.000
    N4017    N        0.73855    0.75632    0.74279    1.000
    N4018    N        0.51139    0.74579    0.76940    1.000
    Si4019   Si       0.54033    0.74742    0.80276    1.000
    N4020    N        0.51948    0.76030    0.83749    1.000
    N4021    N        0.57724    0.76406    0.78587    1.000
    Si4022   Si       0.59428    0.71548    0.78444    1.000
    N4023    N        0.62738    0.73451    0.75935    1.000
    Si4024   Si       0.64379    0.74825    0.79715    1.000
    N4025    N        0.68314    0.73309    0.80653    1.000
    Si4026   Si       0.70807    0.76680    0.81339    1.000
    N4027    N        0.62157    0.71801    0.82039    1.000
    N4028    N        0.53968    0.75354    0.95444    1.000
    Si4029   Si       0.60127    0.74633    0.99569    1.000
    N4030    N        0.60975    0.74289    0.95352    1.000
    N4031    N        0.61635    0.72723    0.89531    1.000
    Si4032   Si       0.70183    0.76439    0.94274    1.000
    N4033    N        0.71403    0.72226    0.94694    1.000
    Si4034   Si       0.62524    0.76309    0.91751    1.000
    Si4035   Si       0.60139    0.80318    0.02146    1.000
    Si4036   Si       0.49963    0.79589    0.05347    1.000
    N4037    N        0.59947    0.80234    0.06285    1.000
    N4038    N        0.53555    0.81295    0.07676    1.000
    N4039    N        0.49762    0.79690    0.00779    1.000
    Si4040   Si       0.55943    0.78050    0.06276    1.000
    N4041    N        0.56852    0.77234    0.01533    1.000
    N4042    N        0.59368    0.82888    0.12341    1.000
    Si4043   Si       0.62275    0.80611    0.09851    1.000
    Si4044   Si       0.69291    0.81136    0.06896    1.000
    N4045    N        0.73180    0.81551    0.09436    1.000
    N4046    N        0.66111    0.82747    0.09266    1.000
    N4047    N        0.62970    0.77714    0.00632    1.000
    N4048    N        0.68060    0.77424    0.05420    1.000
    Si4049   Si       0.73976    0.77341    0.09841    1.000
    Si4050   Si       0.55337    0.82153    0.18872    1.000
    N4051    N        0.57812    0.78527    0.19892    1.000
    Si4052   Si       0.51648    0.77647    0.22211    1.000
    N4053    N        0.52115    0.81854    0.21747    1.000
    Si4054   Si       0.60367    0.81252    0.22258    1.000
    N4055    N        0.64494    0.80447    0.22141    1.000
    N4056    N        0.70927    0.81223    0.20264    1.000
    N4057    N        0.54706    0.81238    0.35108    1.000
    N4058    N        0.59692    0.80337    0.26439    1.000
    N4059    N        0.61409    0.81691    0.34048    1.000
    Si4060   Si       0.61463    0.82967    0.29477    1.000
    Si4061   Si       0.68820    0.81024    0.30563    1.000
    N4062    N        0.64958    0.78986    0.29488    1.000
    N4063    N        0.68217    0.82833    0.34508    1.000
    Si4064   Si       0.64605    0.82073    0.37073    1.000
    Si4065   Si       0.62285    0.77447    0.32401    1.000
    N4066    N        0.70927    0.77292    0.31417    1.000
    Si4067   Si       0.64628    0.77410    0.25383    1.000
    Si4068   Si       0.56244    0.78146    0.42521    1.000
    Si4069   Si       0.52338    0.82299    0.38611    1.000
    N4070    N        0.54501    0.82037    0.42440    1.000
    Si4071   Si       0.60694    0.80372    0.48348    1.000
    Si4072   Si       0.72713    0.77803    0.49139    1.000
    N4073    N        0.70607    0.79206    0.45650    1.000
    Si4074   Si       0.70073    0.80170    0.41367    1.000
    N4075    N        0.65925    0.79391    0.40352    1.000
    N4076    N        0.73218    0.78843    0.38728    1.000
    N4077    N        0.64684    0.81621    0.48640    1.000
    Si4078   Si       0.68715    0.82890    0.49324    1.000
    N4079    N        0.58010    0.80725    0.58024    1.000
    N4080    N        0.51874    0.79350    0.53937    1.000
    Si4081   Si       0.53896    0.79702    0.57660    1.000
    N4082    N        0.59758    0.78459    0.52033    1.000
    N4083    N        0.52995    0.81785    0.61454    1.000
    Si4084   Si       0.61403    0.78870    0.56191    1.000
    N4085    N        0.70725    0.80362    0.52052    1.000
    N4086    N        0.64902    0.81073    0.56883    1.000
    Si4087   Si       0.69055    0.80693    0.56037    1.000
    Si4088   Si       0.73434    0.80668    0.60297    1.000
    N4089    N        0.71025    0.77507    0.58254    1.000
    N4090    N        0.60934    0.77075    0.70497    1.000
    N4091    N        0.54423    0.78967    0.72983    1.000
    N4092    N        0.59769    0.81649    0.64978    1.000
    N4093    N        0.66773    0.78023    0.73316    1.000
    Si4094   Si       0.71007    0.78893    0.74173    1.000
    Si4095   Si       0.64163    0.81449    0.73966    1.000
    Si4096   Si       0.61502    0.77907    0.66187    1.000
    N4097    N        0.65853    0.78197    0.65809    1.000
    N4098    N        0.71413    0.81245    0.70613    1.000
    Si4099   Si       0.67727    0.81383    0.68081    1.000
    Si4100   Si       0.53240    0.79903    0.85489    1.000
    N4101    N        0.57422    0.80217    0.84326    1.000
    Si4102   Si       0.59186    0.80341    0.79955    1.000
    N4103    N        0.60336    0.81238    0.75564    1.000
    Si4104   Si       0.51750    0.81724    0.75090    1.000
    N4105    N        0.70036    0.78003    0.85762    1.000
    N4106    N        0.70458    0.79868    0.78455    1.000
    N4107    N        0.63336    0.78931    0.80773    1.000
    Si4108   Si       0.64456    0.82260    0.83095    1.000
    N4109    N        0.64091    0.81406    0.87313    1.000
    Si4110   Si       0.59655    0.81649    0.87698    1.000
    Si4111   Si       0.53528    0.78240    0.98847    1.000
    Si4112   Si       0.55582    0.78835    0.92942    1.000
    N4113    N        0.52755    0.79123    0.89728    1.000
    N4114    N        0.54742    0.81471    0.96137    1.000
    N4115    N        0.59319    0.79095    0.91153    1.000
    Si4116   Si       0.73434    0.82743    0.92046    1.000
    N4117    N        0.73093    0.78456    0.91900    1.000
    Si4118   Si       0.67917    0.80186    0.88613    1.000
    N4119    N        0.69705    0.78150    0.98278    1.000
    N4120    N        0.66705    0.77360    0.91923    1.000
    Si4121   Si       0.72422    0.81324    0.99540    1.000
    N4122    N        0.55155    0.87753    0.09824    1.000
    N4123    N        0.58649    0.84257    0.00822    1.000
    Si4124   Si       0.59482    0.88199    0.02172    1.000
    N4125    N        0.60933    0.88712    0.06288    1.000
    Si4126   Si       0.55228    0.83397    0.11318    1.000
    N4127    N        0.71493    0.83071    0.03413    1.000
    N4128    N        0.48947    0.87803    0.13018    1.000
    Si4129   Si       0.49441    0.84808    0.23865    1.000
    Si4130   Si       0.50673    0.86515    0.16797    1.000
    N4131    N        0.58942    0.84631    0.19769    1.000
    Si4132   Si       0.60862    0.85430    0.15807    1.000
    Si4133   Si       0.57414    0.88406    0.21042    1.000
    N4134    N        0.53339    0.88439    0.19535    1.000
    N4135    N        0.53300    0.83226    0.15192    1.000
    N4136    N        0.67144    0.86946    0.22600    1.000
    Si4137   Si       0.66831    0.85797    0.12355    1.000
    N4138    N        0.65011    0.84150    0.16220    1.000
    N4139    N        0.73534    0.88146    0.19999    1.000
    N4140    N        0.70705    0.86330    0.13899    1.000
    Si4141   Si       0.67031    0.83394    0.20143    1.000
    N4142    N        0.57735    0.85592    0.30380    1.000
    Si4143   Si       0.57747    0.84202    0.34374    1.000
    N4144    N        0.71003    0.83704    0.27747    1.000
    N4145    N        0.64773    0.85592    0.28869    1.000
    Si4146   Si       0.68251    0.86932    0.26836    1.000
    N4147    N        0.57948    0.87395    0.37198    1.000
    N4148    N        0.51198    0.86236    0.37887    1.000
    N4149    N        0.51444    0.84686    0.48274    1.000
    N4150    N        0.58738    0.84214    0.47893    1.000
    Si4151   Si       0.55087    0.84953    0.45824    1.000
    N4152    N        0.55025    0.88664    0.43462    1.000
    Si4153   Si       0.54502    0.89008    0.39283    1.000
    Si4154   Si       0.61074    0.87469    0.49755    1.000
    N4155    N        0.70676    0.84441    0.40659    1.000
    Si4156   Si       0.73301    0.86212    0.43589    1.000
    N4157    N        0.64445    0.86132    0.38384    1.000
    Si4158   Si       0.69032    0.86141    0.36980    1.000
    N4159    N        0.70905    0.86496    0.47389    1.000
    Si4160   Si       0.61716    0.89295    0.38492    1.000
    N4161    N        0.53434    0.85762    0.55154    1.000
    Si4162   Si       0.57335    0.87504    0.56322    1.000
    N4163    N        0.58085    0.86994    0.60609    1.000
    N4164    N        0.50260    0.88348    0.60409    1.000
    N4165    N        0.60883    0.86839    0.54010    1.000
    Si4166   Si       0.49571    0.84339    0.62142    1.000
    Si4167   Si       0.51228    0.83364    0.52398    1.000
    Si4168   Si       0.57105    0.82896    0.61804    1.000
    Si4169   Si       0.64422    0.85471    0.55958    1.000
    N4170    N        0.64770    0.87733    0.59891    1.000
    N4171    N        0.67259    0.85803    0.52806    1.000
    Si4172   Si       0.68504    0.86469    0.61632    1.000
    N4173    N        0.70644    0.83517    0.59157    1.000
    Si4174   Si       0.68764    0.89180    0.49982    1.000
    N4175    N        0.49877    0.85225    0.66443    1.000
    N4176    N        0.50278    0.84753    0.72545    1.000
    Si4177   Si       0.52957    0.86830    0.69390    1.000
    N4178    N        0.57036    0.85106    0.70327    1.000
    Si4179   Si       0.60851    0.84926    0.67937    1.000
    N4180    N        0.69029    0.85055    0.65906    1.000
    Si4181   Si       0.67101    0.86995    0.71914    1.000
    N4182    N        0.61786    0.88942    0.66307    1.000
    N4183    N        0.64624    0.83642    0.70209    1.000
    N4184    N        0.71159    0.88474    0.71475    1.000
    Si4185   Si       0.72179    0.88239    0.66880    1.000
    Si4186   Si       0.52522    0.85546    0.80955    1.000
    Si4187   Si       0.59052    0.87650    0.84143    1.000
    N4188    N        0.59430    0.88205    0.75671    1.000
    N4189    N        0.55055    0.88452    0.82774    1.000
    Si4190   Si       0.57348    0.84442    0.74694    1.000
    N4191    N        0.50784    0.83372    0.84378    1.000
    N4192    N        0.54803    0.83196    0.78109    1.000
    N4193    N        0.49029    0.86910    0.78275    1.000
    N4194    N        0.61358    0.85046    0.81511    1.000
    N4195    N        0.72904    0.86318    0.78047    1.000
    Si4196   Si       0.69436    0.84000    0.78986    1.000
    Si4197   Si       0.69777    0.87006    0.86186    1.000
    N4198    N        0.66162    0.85044    0.76058    1.000
    Si4199   Si       0.62939    0.87250    0.78177    1.000
    N4200    N        0.68086    0.84559    0.83058    1.000
    N4201    N        0.49418    0.88736    0.91090    1.000
    Si4202   Si       0.55216    0.85345    0.98099    1.000
    N4203    N        0.50768    0.86199    0.98261    1.000
    N4204    N        0.58823    0.85872    0.88029    1.000
    N4205    N        0.55688    0.88229    0.94587    1.000
    Si4206   Si       0.51224    0.88919    0.94899    1.000
    N4207    N        0.72503    0.84005    0.96047    1.000
    N4208    N        0.70304    0.83980    0.89371    1.000
    Si4209   Si       0.71891    0.88257    0.96005    1.000
    Si4210   Si       0.51813    0.91513    0.01230    1.000
    N4211    N        0.50399    0.90369    0.05218    1.000
    Si4212   Si       0.58937    0.90143    0.09997    1.000
    N4213    N        0.58666    0.94468    0.09554    1.000
    N4214    N        0.55691    0.89836    0.00504    1.000
    Si4215   Si       0.51200    0.89015    0.09273    1.000
    Si4216   Si       0.71757    0.91290    0.03079    1.000
    Si4217   Si       0.64809    0.90725    0.06023    1.000
    N4218    N        0.67509    0.90115    0.02648    1.000
    N4219    N        0.66227    0.89547    0.10229    1.000
    N4220    N        0.73638    0.89537    0.99739    1.000
    N4221    N        0.73376    0.89326    0.06477    1.000
    Si4222   Si       0.52030    0.90925    0.22861    1.000
    N4223    N        0.60994    0.89548    0.14204    1.000
    N4224    N        0.54528    0.94508    0.15151    1.000
    N4225    N        0.73586    0.92490    0.13701    1.000
    N4226    N        0.61267    0.90877    0.21509    1.000
    Si4227   Si       0.71406    0.89826    0.16316    1.000
    N4228    N        0.67213    0.91240    0.17115    1.000
    N4229    N        0.66173    0.94335    0.23696    1.000
    Si4230   Si       0.64623    0.92052    0.13591    1.000
    Si4231   Si       0.65667    0.90788    0.21148    1.000
    N4232    N        0.53489    0.91786    0.30823    1.000
    N4233    N        0.60335    0.91673    0.28871    1.000
    Si4234   Si       0.49591    0.91669    0.29031    1.000
    Si4235   Si       0.56663    0.89482    0.29053    1.000
    Si4236   Si       0.54477    0.94505    0.34032    1.000
    Si4237   Si       0.59751    0.93149    0.24922    1.000
    N4238    N        0.49819    0.88656    0.25584    1.000
    N4239    N        0.56149    0.90603    0.24685    1.000
    Si4240   Si       0.61790    0.93945    0.32175    1.000
    Si4241   Si       0.68111    0.94451    0.27588    1.000
    Si4242   Si       0.72777    0.91450    0.33040    1.000
    N4243    N        0.69930    0.90844    0.28576    1.000
    N4244    N        0.63145    0.92559    0.35867    1.000
    N4245    N        0.69141    0.90132    0.35236    1.000
    N4246    N        0.73712    0.94618    0.36489    1.000
    N4247    N        0.52921    0.92839    0.37679    1.000
    N4248    N        0.50215    0.93705    0.43948    1.000
    Si4249   Si       0.57786    0.91661    0.44938    1.000
    N4250    N        0.61037    0.90474    0.42567    1.000
    Si4251   Si       0.49154    0.93201    0.39836    1.000
    N4252    N        0.58185    0.90969    0.49381    1.000
    N4253    N        0.67599    0.92555    0.41533    1.000
    Si4254   Si       0.71232    0.93754    0.43685    1.000
    N4255    N        0.64720    0.89244    0.48111    1.000
    Si4256   Si       0.64552    0.91838    0.44703    1.000
    N4257    N        0.69628    0.93936    0.47650    1.000
    Si4258   Si       0.67216    0.93386    0.37220    1.000
    N4259    N        0.55746    0.91849    0.56059    1.000
    Si4260   Si       0.57084    0.93808    0.52367    1.000
    N4261    N        0.60023    0.93666    0.61059    1.000
    Si4262   Si       0.51744    0.89681    0.56594    1.000
    N4263    N        0.52231    0.94316    0.61119    1.000
    Si4264   Si       0.56045    0.94750    0.59284    1.000
    N4265    N        0.72131    0.90696    0.52489    1.000
    Si4266   Si       0.61445    0.89506    0.61949    1.000
    N4267    N        0.54235    0.89833    0.66313    1.000
    N4268    N        0.53229    0.90235    0.72643    1.000
    N4269    N        0.58894    0.93264    0.70785    1.000
    Si4270   Si       0.50978    0.90968    0.63632    1.000
    Si4271   Si       0.54796    0.93007    0.69249    1.000
    Si4272   Si       0.57091    0.91272    0.74444    1.000
    Si4273   Si       0.70172    0.93096    0.71141    1.000
    Si4274   Si       0.62820    0.92306    0.68879    1.000
    N4275    N        0.72327    0.92993    0.67345    1.000
    N4276    N        0.65813    0.91254    0.71862    1.000
    N4277    N        0.71925    0.89280    0.62482    1.000
    Si4278   Si       0.53918    0.92073    0.84805    1.000
    N4279    N        0.49661    0.92478    0.84626    1.000
    N4280    N        0.60960    0.91620    0.84550    1.000
    Si4281   Si       0.49493    0.89024    0.74674    1.000
    N4282    N        0.72814    0.89512    0.84157    1.000
    Si4283   Si       0.65178    0.91621    0.83743    1.000
    N4284    N        0.64981    0.90794    0.79482    1.000
    Si4285   Si       0.65919    0.93108    0.75989    1.000
    N4286    N        0.70237    0.93449    0.75689    1.000
    Si4287   Si       0.72144    0.93757    0.84727    1.000
    N4288    N        0.49996    0.92398    0.97113    1.000
    N4289    N        0.55300    0.91846    0.88834    1.000
    Si4290   Si       0.58658    0.91204    0.96300    1.000
    Si4291   Si       0.57708    0.88973    0.90837    1.000
    Si4292   Si       0.65696    0.91257    0.91595    1.000
    N4293    N        0.61745    0.90410    0.99325    1.000
    N4294    N        0.66644    0.89731    0.87442    1.000
    N4295    N        0.67992    0.89988    0.95147    1.000
    N4296    N        0.61419    0.90671    0.92683    1.000
    Si4297   Si       0.65902    0.91294    0.98785    1.000
    N4298    N        0.52391    0.97847    0.09703    1.000
    Si4299   Si       0.51844    0.98283    0.05277    1.000
    N4300    N        0.59174    0.97916    0.01109    1.000
    N4301    N        0.52843    0.95599    0.02048    1.000
    Si4302   Si       0.55831    0.96682    0.11868    1.000
    Si4303   Si       0.62066    0.97014    0.08600    1.000
    Si4304   Si       0.63390    0.97139    0.01571    1.000
    N4305    N        0.73733    0.95168    0.03353    1.000
    N4306    N        0.64191    0.95009    0.05286    1.000
    Si4307   Si       0.73920    0.97857    0.99958    1.000
    N4308    N        0.49866    0.99583    0.16464    1.000
    Si4309   Si       0.52765    0.96908    0.18215    1.000
    N4310    N        0.55988    0.98874    0.20167    1.000
    N4311    N        0.58322    0.99995    0.13356    1.000
    Si4312   Si       0.56956    0.00170    0.24105    1.000
    Si4313   Si       0.59059    0.00437    0.17444    1.000
    N4314    N        0.50578    0.94929    0.21596    1.000
    Si4315   Si       0.49593    0.97771    0.24711    1.000
    Si4316   Si       0.64113    0.97981    0.22630    1.000
    N4317    N        0.63047    0.99002    0.18579    1.000
    Si4318   Si       0.73522    0.96803    0.14107    1.000
    Si4319   Si       0.65726    0.99169    0.15021    1.000
    N4320    N        0.70100    0.99385    0.15400    1.000
    N4321    N        0.64503    0.96025    0.12086    1.000
    N4322    N        0.52416    0.98370    0.33579    1.000
    N4323    N        0.58316    0.96218    0.33380    1.000
    N4324    N        0.53224    0.99482    0.26413    1.000
    Si4325   Si       0.59122    0.00458    0.34236    1.000
    Si4326   Si       0.48966    0.99492    0.35790    1.000
    N4327    N        0.60290    0.97374    0.24742    1.000
    N4328    N        0.71364    0.97479    0.28173    1.000
    Si4329   Si       0.66575    0.99137    0.32706    1.000
    N4330    N        0.65375    0.95797    0.30515    1.000
    N4331    N        0.68123    0.97576    0.36380    1.000
    N4332    N        0.50924    0.00474    0.45893    1.000
    Si4333   Si       0.59621    0.98009    0.47560    1.000
    N4334    N        0.56459    0.95797    0.45563    1.000
    Si4335   Si       0.52336    0.96420    0.46971    1.000
    N4336    N        0.72000    0.97857    0.42238    1.000
    Si4337   Si       0.72003    0.98233    0.38022    1.000
    N4338    N        0.63172    0.95562    0.46404    1.000
    Si4339   Si       0.66636    0.97052    0.48486    1.000
    N4340    N        0.56441    0.98870    0.57515    1.000
    N4341    N        0.59790    0.97298    0.52162    1.000
    N4342    N        0.53512    0.96472    0.51468    1.000
    Si4343   Si       0.55789    0.00064    0.53283    1.000
    Si4344   Si       0.49488    0.95942    0.53125    1.000
    N4345    N        0.48730    0.98075    0.56787    1.000
    Si4346   Si       0.62736    0.99119    0.54897    1.000
    N4347    N        0.66397    0.98074    0.52756    1.000
    N4348    N        0.63875    0.99243    0.59415    1.000
    Si4349   Si       0.70048    0.00151    0.53800    1.000
    N4350    N        0.70454    0.00265    0.58050    1.000
    N4351    N        0.73532    0.98140    0.52314    1.000
    Si4352   Si       0.59634    0.96696    0.73414    1.000
    N4353    N        0.58249    0.99630    0.63959    1.000
    N4354    N        0.53412    0.97007    0.68179    1.000
    N4355    N        0.58745    0.00214    0.71183    1.000
    Si4356   Si       0.56223    0.00432    0.67585    1.000
    Si4357   Si       0.61734    0.97192    0.62709    1.000
    Si4358   Si       0.72591    0.00190    0.72394    1.000
    N4359    N        0.68285    0.00233    0.64880    1.000
    Si4360   Si       0.71873    0.97904    0.66478    1.000
    Si4361   Si       0.65796    0.99270    0.68463    1.000
    N4362    N        0.63656    0.95947    0.66502    1.000
    N4363    N        0.69539    0.97500    0.70519    1.000
    Si4364   Si       0.54041    0.97063    0.78862    1.000
    Si4365   Si       0.59260    0.95679    0.84174    1.000
    N4366    N        0.49883    0.96024    0.78321    1.000
    N4367    N        0.55353    0.95362    0.82553    1.000
    N4368    N        0.56846    0.95118    0.76283    1.000
    N4369    N        0.61244    0.98734    0.81954    1.000
    Si4370   Si       0.71277    0.00001    0.82132    1.000
    Si4371   Si       0.64060    0.99668    0.78758    1.000
    N4372    N        0.63521    0.96769    0.75462    1.000
    N4373    N        0.70657    0.00419    0.86449    1.000
    N4374    N        0.73126    0.96281    0.81425    1.000
    N4375    N        0.67635    0.95159    0.84584    1.000
    Si4376   Si       0.55450    0.96941    0.98704    1.000
    Si4377   Si       0.55937    0.95894    0.90796    1.000
    N4378    N        0.52244    0.98539    0.90073    1.000
    N4379    N        0.58701    0.97742    0.87880    1.000
    N4380    N        0.56633    0.95022    0.95092    1.000
    N4381    N        0.73514    0.95229    0.88555    1.000
    Si4382   Si       0.68385    0.96878    0.95305    1.000
    Si4383   Si       0.66953    0.98216    0.87791    1.000
    N4384    N        0.72571    0.96016    0.96114    1.000
    N4385    N        0.65844    0.95512    0.98452    1.000
    N4386    N        0.66889    0.95416    0.91316    1.000
    Si4387   Si       0.84937    0.03350    0.06164    1.000
    N4388    N        0.76964    0.05008    0.08586    1.000
    N4389    N        0.83498    0.03280    0.01995    1.000
    Si4390   Si       0.74459    0.03734    0.11921    1.000
    N4391    N        0.83217    0.01192    0.09571    1.000
    N4392    N        0.93546    0.04069    0.00569    1.000
    Si4393   Si       0.91900    0.02567    0.09673    1.000
    N4394    N        0.89131    0.02364    0.06281    1.000
    Si4395   Si       0.97284    0.05966    0.01346    1.000
    N4396    N        0.79730    0.02433    0.21805    1.000
    N4397    N        0.82729    0.01745    0.16437    1.000
    N4398    N        0.75766    0.04310    0.15960    1.000
    Si4399   Si       0.79524    0.04383    0.17740    1.000
    N4400    N        0.92650    0.01018    0.23783    1.000
    Si4401   Si       0.90926    0.01939    0.17209    1.000
    N4402    N        0.89372    0.01559    0.13137    1.000
    N4403    N        0.91204    0.06053    0.17884    1.000
    Si4404   Si       0.77152    0.02796    0.25274    1.000
    N4405    N        0.74489    0.03393    0.28805    1.000
    N4406    N        0.78990    0.06407    0.35901    1.000
    Si4407   Si       0.86401    0.04211    0.27168    1.000
    N4408    N        0.86295    0.03732    0.35222    1.000
    N4409    N        0.83627    0.07039    0.28917    1.000
    Si4410   Si       0.89973    0.04738    0.33576    1.000
    N4411    N        0.93593    0.03626    0.35617    1.000
    Si4412   Si       0.97252    0.04108    0.33213    1.000
    N4413    N        0.90011    0.03241    0.29521    1.000
    Si4414   Si       0.93544    0.03344    0.27262    1.000
    N4415    N        0.96816    0.01719    0.29645    1.000
    N4416    N        0.74666    0.02460    0.47042    1.000
    Si4417   Si       0.76401    0.04191    0.38847    1.000
    N4418    N        0.84088    0.05689    0.41074    1.000
    N4419    N        0.78290    0.01272    0.41392    1.000
    N4420    N        0.83675    0.01499    0.45483    1.000
    Si4421   Si       0.82489    0.01757    0.41461    1.000
    Si4422   Si       0.86168    0.05625    0.45548    1.000
    Si4423   Si       0.75603    0.06573    0.45623    1.000
    N4424    N        0.93197    0.01032    0.48720    1.000
    N4425    N        0.96478    0.06078    0.44870    1.000
    N4426    N        0.90336    0.05319    0.43728    1.000
    Si4427   Si       0.93675    0.02559    0.44666    1.000
    N4428    N        0.82635    0.03642    0.57231    1.000
    N4429    N        0.76735    0.04855    0.53479    1.000
    Si4430   Si       0.76440    0.01212    0.50894    1.000
    Si4431   Si       0.80401    0.01034    0.59924    1.000
    Si4432   Si       0.80113    0.06585    0.55383    1.000
    Si4433   Si       0.86982    0.03288    0.57197    1.000
    N4434    N        0.94794    0.04358    0.60508    1.000
    N4435    N        0.88047    0.02074    0.61125    1.000
    N4436    N        0.87646    0.04569    0.49907    1.000
    Si4437   Si       0.97420    0.01311    0.61950    1.000
    N4438    N        0.80737    0.04433    0.69961    1.000
    Si4439   Si       0.83069    0.03269    0.73314    1.000
    N4440    N        0.78804    0.03485    0.63231    1.000
    Si4441   Si       0.78720    0.01580    0.67404    1.000
    N4442    N        0.74506    0.01313    0.68481    1.000
    N4443    N        0.87535    0.03447    0.72587    1.000
    N4444    N        0.91047    0.04676    0.66981    1.000
    Si4445   Si       0.91648    0.02824    0.63130    1.000
    Si4446   Si       0.89783    0.01547    0.69574    1.000
    Si4447   Si       0.76165    0.04805    0.83506    1.000
    Si4448   Si       0.84133    0.04869    0.80832    1.000
    N4449    N        0.82823    0.05907    0.76820    1.000
    N4450    N        0.77209    0.01294    0.85881    1.000
    N4451    N        0.80002    0.06221    0.82174    1.000
    N4452    N        0.88734    0.04498    0.79635    1.000
    Si4453   Si       0.96149    0.02616    0.78102    1.000
    Si4454   Si       0.93756    0.03865    0.85696    1.000
    N4455    N        0.94075    0.01830    0.81858    1.000
    Si4456   Si       0.89766    0.05548    0.75479    1.000
    N4457    N        0.94045    0.04990    0.75216    1.000
    N4458    N        0.89694    0.02809    0.86745    1.000
    N4459    N        0.74845    0.01331    0.92477    1.000
    N4460    N        0.83805    0.01606    0.87972    1.000
    Si4461   Si       0.85039    0.03259    0.97562    1.000
    N4462    N        0.81433    0.02688    0.94882    1.000
    Si4463   Si       0.80600    0.06298    0.92548    1.000
    Si4464   Si       0.86116    0.05469    0.87672    1.000
    N4465    N        0.96700    0.02921    0.88622    1.000
    Si4466   Si       0.92345    0.02070    0.96701    1.000
    N4467    N        0.92630    0.05743    0.94481    1.000
    Si4468   Si       0.76093    0.08322    0.05935    1.000
    N4469    N        0.78422    0.08368    0.02321    1.000
    Si4470   Si       0.82681    0.07606    0.02483    1.000
    N4471    N        0.83856    0.11506    0.01074    1.000
    Si4472   Si       0.83230    0.10192    0.10036    1.000
    N4473    N        0.83875    0.07443    0.06794    1.000
    N4474    N        0.76059    0.12103    0.07801    1.000
    Si4475   Si       0.95849    0.08970    0.09061    1.000
    N4476    N        0.97194    0.06902    0.05503    1.000
    N4477    N        0.92643    0.06691    0.10822    1.000
    Si4478   Si       0.83445    0.11027    0.16334    1.000
    Si4479   Si       0.79082    0.09890    0.22052    1.000
    N4480    N        0.81231    0.08192    0.18764    1.000
    N4481    N        0.80364    0.11810    0.13193    1.000
    N4482    N        0.76633    0.07251    0.24469    1.000
    N4483    N        0.75528    0.12443    0.20893    1.000
    N4484    N        0.81518    0.12307    0.24736    1.000
    Si4485   Si       0.90422    0.08623    0.14107    1.000
    N4486    N        0.86100    0.08865    0.13356    1.000
    Si4487   Si       0.91380    0.07835    0.22008    1.000
    N4488    N        0.92128    0.12150    0.21673    1.000
    N4489    N        0.98724    0.09518    0.12149    1.000
    N4490    N        0.87719    0.06663    0.23857    1.000
    Si4491   Si       0.76833    0.09674    0.33911    1.000
    Si4492   Si       0.82453    0.11089    0.28693    1.000
    N4493    N        0.84586    0.10890    0.36049    1.000
    N4494    N        0.78495    0.11758    0.30465    1.000
    Si4495   Si       0.83524    0.06703    0.36785    1.000
    Si4496   Si       0.87634    0.12411    0.33505    1.000
    Si4497   Si       0.96958    0.10318    0.36208    1.000
    Si4498   Si       0.93516    0.09564    0.29848    1.000
    N4499    N        0.90242    0.09048    0.32704    1.000
    N4500    N        0.96849    0.08386    0.32445    1.000
    N4501    N        0.93796    0.07435    0.26046    1.000
    N4502    N        0.74996    0.07280    0.41478    1.000
    N4503    N        0.79400    0.07634    0.46910    1.000
    N4504    N        0.85812    0.09987    0.46958    1.000
    Si4505   Si       0.81747    0.10600    0.48794    1.000
    N4506    N        0.98833    0.12226    0.45127    1.000
    Si4507   Si       0.93297    0.08451    0.43048    1.000
    Si4508   Si       0.98222    0.08719    0.47943    1.000
    N4509    N        0.93940    0.10396    0.39289    1.000
    N4510    N        0.92323    0.11553    0.46258    1.000
    N4511    N        0.78904    0.09385    0.58483    1.000
    N4512    N        0.82571    0.09187    0.52740    1.000
    Si4513   Si       0.74617    0.11030    0.59249    1.000
    N4514    N        0.84989    0.12397    0.59374    1.000
    Si4515   Si       0.86982    0.08420    0.51881    1.000
    N4516    N        0.92355    0.11512    0.59093    1.000
    N4517    N        0.96115    0.09949    0.51655    1.000
    Si4518   Si       0.88502    0.11385    0.57177    1.000
    Si4519   Si       0.95403    0.08638    0.60218    1.000
    N4520    N        0.89189    0.12080    0.52842    1.000
    N4521    N        0.88292    0.07144    0.56096    1.000
    Si4522   Si       0.92897    0.12634    0.50678    1.000
    N4523    N        0.74852    0.09188    0.63154    1.000
    Si4524   Si       0.78932    0.07827    0.62582    1.000
    N4525    N        0.81057    0.11065    0.73192    1.000
    N4526    N        0.75847    0.09726    0.70074    1.000
    N4527    N        0.81727    0.09753    0.65304    1.000
    Si4528   Si       0.80132    0.08781    0.69341    1.000
    Si4529   Si       0.76850    0.11954    0.73937    1.000
    Si4530   Si       0.84799    0.12451    0.63907    1.000
    N4531    N        0.93090    0.10263    0.70972    1.000
    N4532    N        0.88924    0.11407    0.65062    1.000
    N4533    N        0.95074    0.10031    0.64495    1.000
    Si4534   Si       0.96316    0.07976    0.72657    1.000
    Si4535   Si       0.91865    0.08998    0.67149    1.000
    Si4536   Si       0.80239    0.08943    0.78666    1.000
    N4537    N        0.76446    0.11017    0.78256    1.000
    N4538    N        0.83109    0.12278    0.79196    1.000
    Si4539   Si       0.84719    0.11833    0.75289    1.000
    Si4540   Si       0.85348    0.12007    0.82912    1.000
    N4541    N        0.85846    0.07716    0.83955    1.000
    N4542    N        0.93398    0.08064    0.84770    1.000
    Si4543   Si       0.89984    0.08146    0.82079    1.000
    N4544    N        0.88563    0.09767    0.75211    1.000
    N4545    N        0.89587    0.12481    0.81560    1.000
    N4546    N        0.83663    0.08015    0.90035    1.000
    Si4547   Si       0.75576    0.10624    0.88078    1.000
    N4548    N        0.80258    0.09529    0.95592    1.000
    Si4549   Si       0.77021    0.09844    0.98289    1.000
    Si4550   Si       0.84133    0.10912    0.96840    1.000
    N4551    N        0.76862    0.07195    0.90405    1.000
    Si4552   Si       0.85730    0.12065    0.89840    1.000
    N4553    N        0.74465    0.06635    0.96965    1.000
    N4554    N        0.86362    0.07150    0.96593    1.000
    Si4555   Si       0.95594    0.09119    0.95091    1.000
    N4556    N        0.96351    0.10655    0.91256    1.000
    Si4557   Si       0.89604    0.08744    0.94217    1.000
    N4558    N        0.92136    0.11692    0.96404    1.000
    N4559    N        0.98161    0.09078    0.98388    1.000
    Si4560   Si       0.93274    0.11054    0.88067    1.000
    N4561    N        0.89591    0.10220    0.90171    1.000
    Si4562   Si       0.83031    0.14744    0.03724    1.000
    N4563    N        0.83763    0.13978    0.07955    1.000
    N4564    N        0.79738    0.17048    0.02326    1.000
    Si4565   Si       0.75887    0.16857    0.00488    1.000
    Si4566   Si       0.85339    0.17872    0.09255    1.000
    Si4567   Si       0.76746    0.13662    0.11714    1.000
    N4568    N        0.85804    0.18208    0.02998    1.000
    Si4569   Si       0.92401    0.15641    0.10997    1.000
    Si4570   Si       0.95941    0.15227    0.04684    1.000
    N4571    N        0.92316    0.15431    0.02460    1.000
    N4572    N        0.89656    0.17768    0.08452    1.000
    N4573    N        0.94710    0.13058    0.08126    1.000
    N4574    N        0.77390    0.18041    0.12229    1.000
    Si4575   Si       0.84956    0.18218    0.17766    1.000
    Si4576   Si       0.80779    0.16351    0.23836    1.000
    N4577    N        0.81183    0.18253    0.19867    1.000
    Si4578   Si       0.74008    0.16488    0.21996    1.000
    N4579    N        0.95629    0.18187    0.12950    1.000
    N4580    N        0.85986    0.14044    0.18409    1.000
    Si4581   Si       0.90589    0.14408    0.18211    1.000
    N4582    N        0.92088    0.18293    0.18928    1.000
    N4583    N        0.91353    0.12868    0.14274    1.000
    N4584    N        0.85660    0.14037    0.29999    1.000
    Si4585   Si       0.75719    0.14368    0.28551    1.000
    N4586    N        0.76836    0.16921    0.25395    1.000
    Si4587   Si       0.74204    0.16567    0.35532    1.000
    Si4588   Si       0.86709    0.17851    0.28364    1.000
    N4589    N        0.75241    0.12636    0.36571    1.000
    N4590    N        0.90101    0.15884    0.35017    1.000
    Si4591   Si       0.93827    0.16590    0.32445    1.000
    N4592    N        0.93277    0.13774    0.29140    1.000
    N4593    N        0.96767    0.14690    0.34924    1.000
    N4594    N        0.89727    0.17689    0.25381    1.000
    Si4595   Si       0.93130    0.14900    0.25118    1.000
    N4596    N        0.96813    0.17308    0.25062    1.000
    N4597    N        0.83873    0.17617    0.37872    1.000
    Si4598   Si       0.84100    0.13633    0.39426    1.000
    Si4599   Si       0.78580    0.15424    0.44432    1.000
    N4600    N        0.80391    0.14896    0.48366    1.000
    N4601    N        0.80649    0.12955    0.41602    1.000
    N4602    N        0.74320    0.13733    0.44108    1.000
    Si4603   Si       0.91871    0.14273    0.39072    1.000
    N4604    N        0.87985    0.17083    0.47646    1.000
    N4605    N        0.93972    0.16786    0.41854    1.000
    N4606    N        0.88055    0.13690    0.41240    1.000
    Si4607   Si       0.95878    0.15603    0.45665    1.000
    Si4608   Si       0.88260    0.13221    0.45570    1.000
    N4609    N        0.80762    0.16069    0.55184    1.000
    Si4610   Si       0.80899    0.13399    0.58406    1.000
    Si4611   Si       0.80576    0.18099    0.51286    1.000
    N4612    N        0.78972    0.15100    0.61788    1.000
    Si4613   Si       0.97723    0.17484    0.53180    1.000
    N4614    N        0.90234    0.17451    0.61094    1.000
    N4615    N        0.95189    0.16281    0.49843    1.000
    N4616    N        0.74619    0.15708    0.73819    1.000
    N4617    N        0.84633    0.16585    0.65298    1.000
    Si4618   Si       0.73950    0.17063    0.69707    1.000
    Si4619   Si       0.80545    0.18110    0.64790    1.000
    Si4620   Si       0.92399    0.14072    0.62990    1.000
    N4621    N        0.92395    0.16744    0.66908    1.000
    Si4622   Si       0.90769    0.13282    0.73435    1.000
    N4623    N        0.96878    0.15506    0.62403    1.000
    N4624    N        0.86631    0.15295    0.73554    1.000
    Si4625   Si       0.98499    0.12735    0.65264    1.000
    Si4626   Si       0.88674    0.18495    0.65062    1.000
    N4627    N        0.77397    0.13849    0.85755    1.000
    Si4628   Si       0.76059    0.14113    0.81307    1.000
    N4629    N        0.84980    0.14355    0.86414    1.000
    N4630    N        0.77323    0.18138    0.80072    1.000
    N4631    N        0.96798    0.14526    0.80992    1.000
    Si4632   Si       0.92772    0.15356    0.82348    1.000
    Si4633   Si       0.97712    0.14392    0.76759    1.000
    N4634    N        0.93946    0.15591    0.74927    1.000
    N4635    N        0.93087    0.15399    0.86725    1.000
    Si4636   Si       0.77394    0.17775    0.87594    1.000
    N4637    N        0.75109    0.13646    0.97897    1.000
    N4638    N        0.77153    0.17491    0.92097    1.000
    N4639    N        0.85726    0.13574    0.93966    1.000
    Si4640   Si       0.73894    0.15243    0.93904    1.000
    Si4641   Si       0.86111    0.17833    0.94650    1.000
    N4642    N        0.96912    0.16151    0.97978    1.000
    Si4643   Si       0.92664    0.15486    0.98123    1.000
    N4644    N        0.82568    0.21484    0.08402    1.000
    Si4645   Si       0.82571    0.20080    0.00917    1.000
    N4646    N        0.81835    0.24314    0.02138    1.000
    Si4647   Si       0.95016    0.23242    0.05884    1.000
    N4648    N        0.91672    0.22437    0.03010    1.000
    N4649    N        0.96664    0.19265    0.06330    1.000
    Si4650   Si       0.89912    0.18401    0.04265    1.000
    Si4651   Si       0.80740    0.20569    0.12347    1.000
    Si4652   Si       0.78270    0.21300    0.19180    1.000
    Si4653   Si       0.83502    0.22436    0.23139    1.000
    N4654    N        0.79561    0.23236    0.15457    1.000
    N4655    N        0.74531    0.19169    0.18589    1.000
    N4656    N        0.79429    0.24002    0.22304    1.000
    N4657    N        0.84682    0.18493    0.13475    1.000
    N4658    N        0.94678    0.24334    0.17215    1.000
    Si4659   Si       0.90503    0.20471    0.22272    1.000
    N4660    N        0.93496    0.23097    0.24110    1.000
    N4661    N        0.86696    0.21529    0.20211    1.000
    Si4662   Si       0.95525    0.20188    0.16932    1.000
    N4663    N        0.81906    0.23307    0.36053    1.000
    N4664    N        0.83180    0.19159    0.26070    1.000
    Si4665   Si       0.84710    0.24365    0.29621    1.000
    N4666    N        0.86704    0.20829    0.31387    1.000
    Si4667   Si       0.87216    0.19409    0.35481    1.000
    N4668    N        0.95683    0.20322    0.31298    1.000
    Si4669   Si       0.96553    0.21672    0.27052    1.000
    Si4670   Si       0.97604    0.23426    0.33951    1.000
    N4671    N        0.76486    0.19466    0.37758    1.000
    N4672    N        0.80129    0.19492    0.43491    1.000
    Si4673   Si       0.77634    0.22913    0.44888    1.000
    Si4674   Si       0.80705    0.20249    0.39075    1.000
    Si4675   Si       0.74722    0.23395    0.38110    1.000
    N4676    N        0.88584    0.23206    0.37133    1.000
    Si4677   Si       0.95958    0.20624    0.41452    1.000
    N4678    N        0.89987    0.23527    0.49012    1.000
    N4679    N        0.97814    0.20694    0.37644    1.000
    N4680    N        0.93389    0.24119    0.42127    1.000
    N4681    N        0.98772    0.19561    0.44662    1.000
    N4682    N        0.76926    0.20215    0.51198    1.000
    N4683    N        0.83596    0.21391    0.51231    1.000
    Si4684   Si       0.75561    0.23654    0.53558    1.000
    N4685    N        0.74513    0.22452    0.57729    1.000
    N4686    N        0.79284    0.21384    0.61740    1.000
    Si4687   Si       0.76058    0.18349    0.60170    1.000
    Si4688   Si       0.91798    0.19989    0.57899    1.000
    N4689    N        0.89699    0.19962    0.54285    1.000
    Si4690   Si       0.87659    0.20085    0.50516    1.000
    Si4691   Si       0.98768    0.18911    0.60563    1.000
    N4692    N        0.95948    0.18856    0.56927    1.000
    N4693    N        0.92635    0.24047    0.59615    1.000
    Si4694   Si       0.79485    0.21933    0.70803    1.000
    N4695    N        0.83872    0.21492    0.70917    1.000
    Si4696   Si       0.86183    0.19747    0.74263    1.000
    N4697    N        0.77705    0.18778    0.68263    1.000
    N4698    N        0.90053    0.21225    0.74735    1.000
    N4699    N        0.98278    0.21205    0.64410    1.000
    N4700    N        0.95444    0.21432    0.70958    1.000
    N4701    N        0.88501    0.22826    0.65762    1.000
    Si4702   Si       0.96246    0.18637    0.67578    1.000
    N4703    N        0.84518    0.20404    0.78319    1.000
    Si4704   Si       0.80259    0.21385    0.78773    1.000
    N4705    N        0.74396    0.21014    0.86330    1.000
    N4706    N        0.78194    0.21342    0.74814    1.000
    Si4707   Si       0.75002    0.19015    0.76550    1.000
    Si4708   Si       0.74088    0.22566    0.82154    1.000
    N4709    N        0.80808    0.20357    0.86923    1.000
    Si4710   Si       0.84891    0.18713    0.86827    1.000
    N4711    N        0.86876    0.21846    0.84809    1.000
    N4712    N        0.97209    0.21391    0.77645    1.000
    Si4713   Si       0.88135    0.21855    0.80586    1.000
    Si4714   Si       0.95575    0.21991    0.81490    1.000
    N4715    N        0.97411    0.19933    0.85197    1.000
    N4716    N        0.91878    0.19656    0.81246    1.000
    Si4717   Si       0.94206    0.19936    0.74936    1.000
    Si4718   Si       0.74116    0.23988    0.89541    1.000
    N4719    N        0.78254    0.24244    0.91535    1.000
    Si4720   Si       0.79020    0.20777    0.94310    1.000
    N4721    N        0.75885    0.20711    0.97963    1.000
    N4722    N        0.82555    0.19466    0.96523    1.000
    Si4723   Si       0.91068    0.22688    0.98517    1.000
    N4724    N        0.94810    0.23726    0.96520    1.000
    N4725    N        0.86535    0.19501    0.90634    1.000
    N4726    N        0.97302    0.19064    0.91844    1.000
    N4727    N        0.89783    0.18833    0.97047    1.000
    Si4728   Si       0.97348    0.20079    0.96028    1.000
    N4729    N        0.92461    0.22752    0.89225    1.000
    Si4730   Si       0.94406    0.19114    0.88393    1.000
    Si4731   Si       0.88541    0.24110    0.88115    1.000
    N4732    N        0.79071    0.28660    0.06728    1.000
    Si4733   Si       0.82428    0.25315    0.06230    1.000
    N4734    N        0.74997    0.26651    0.11459    1.000
    Si4735   Si       0.74328    0.27564    0.07175    1.000
    Si4736   Si       0.84137    0.27074    0.99619    1.000
    N4737    N        0.86180    0.27533    0.06578    1.000
    N4738    N        0.74676    0.24140    0.04171    1.000
    Si4739   Si       0.77296    0.24117    0.00832    1.000
    N4740    N        0.97751    0.25877    0.03792    1.000
    Si4741   Si       0.89613    0.26750    0.09289    1.000
    N4742    N        0.93752    0.25066    0.09476    1.000
    Si4743   Si       0.96740    0.26549    0.99543    1.000
    Si4744   Si       0.78223    0.27153    0.14074    1.000
    N4745    N        0.83683    0.28371    0.19369    1.000
    N4746    N        0.76699    0.28848    0.17678    1.000
    Si4747   Si       0.79685    0.28420    0.20781    1.000
    N4748    N        0.81825    0.29077    0.12731    1.000
    Si4749   Si       0.85173    0.29242    0.15366    1.000
    N4750    N        0.88150    0.26551    0.13358    1.000
    Si4751   Si       0.94314    0.26091    0.21050    1.000
    N4752    N        0.90669    0.28484    0.20700    1.000
    Si4753   Si       0.86843    0.28361    0.22657    1.000
    Si4754   Si       0.95154    0.26649    0.13412    1.000
    N4755    N        0.97520    0.28599    0.22378    1.000
    N4756    N        0.78835    0.29033    0.35852    1.000
    Si4757   Si       0.77716    0.25930    0.26173    1.000
    Si4758   Si       0.78839    0.25308    0.33446    1.000
    Si4759   Si       0.85360    0.25911    0.36170    1.000
    N4760    N        0.85661    0.25327    0.25598    1.000
    N4761    N        0.80284    0.24802    0.29484    1.000
    N4762    N        0.86375    0.27756    0.32130    1.000
    N4763    N        0.74736    0.24404    0.33840    1.000
    N4764    N        0.78791    0.29985    0.24666    1.000
    N4765    N        0.97109    0.25726    0.29035    1.000
    Si4766   Si       0.94814    0.28345    0.31623    1.000
    N4767    N        0.94542    0.26272    0.35318    1.000
    Si4768   Si       0.79900    0.28292    0.40014    1.000
    N4769    N        0.79187    0.26087    0.47557    1.000
    N4770    N        0.84228    0.27924    0.39851    1.000
    N4771    N        0.77571    0.24983    0.40988    1.000
    N4772    N        0.90863    0.29380    0.47343    1.000
    Si4773   Si       0.91690    0.26054    0.38595    1.000
    N4774    N        0.96819    0.25801    0.47644    1.000
    Si4775   Si       0.92807    0.25582    0.46125    1.000
    N4776    N        0.90665    0.30123    0.40034    1.000
    N4777    N        0.84883    0.28211    0.51608    1.000
    N4778    N        0.77276    0.28628    0.60172    1.000
    N4779    N        0.79183    0.25881    0.54795    1.000
    Si4780   Si       0.81742    0.25285    0.51152    1.000
    Si4781   Si       0.78219    0.24656    0.59042    1.000
    Si4782   Si       0.78554    0.30124    0.56298    1.000
    Si4783   Si       0.94284    0.27339    0.57226    1.000
    N4784    N        0.91729    0.28900    0.54198    1.000
    Si4785   Si       0.89086    0.27467    0.51011    1.000
    N4786    N        0.98433    0.26372    0.55791    1.000
    Si4787   Si       0.79206    0.28889    0.68750    1.000
    N4788    N        0.83036    0.27748    0.66476    1.000
    N4789    N        0.77158    0.25125    0.68995    1.000
    Si4790   Si       0.85667    0.24687    0.68616    1.000
    N4791    N        0.93457    0.27830    0.73991    1.000
    N4792    N        0.86985    0.27109    0.72213    1.000
    Si4793   Si       0.95321    0.25714    0.70679    1.000
    N4794    N        0.94328    0.26406    0.66348    1.000
    Si4795   Si       0.91215    0.25377    0.63594    1.000
    N4796    N        0.88687    0.28953    0.62880    1.000
    Si4797   Si       0.98730    0.25303    0.65562    1.000
    Si4798   Si       0.78748    0.28465    0.81792    1.000
    N4799    N        0.80880    0.27689    0.85446    1.000
    N4800    N        0.77713    0.24443    0.80610    1.000
    N4801    N        0.95728    0.26098    0.82437    1.000
    Si4802   Si       0.91783    0.27645    0.81999    1.000
    N4803    N        0.89849    0.27781    0.85793    1.000
    N4804    N        0.89231    0.25955    0.79248    1.000
    Si4805   Si       0.89827    0.25535    0.75022    1.000
    N4806    N        0.85113    0.26136    0.90106    1.000
    N4807    N        0.82320    0.27013    0.95891    1.000
    N4808    N        0.76171    0.27204    0.97884    1.000
    Si4809   Si       0.78387    0.27730    0.94161    1.000
    Si4810   Si       0.84338    0.29613    0.92935    1.000
    Si4811   Si       0.81200    0.24461    0.88303    1.000
    Si4812   Si       0.94257    0.25340    0.92259    1.000
    N4813    N        0.88454    0.26130    0.98408    1.000
    N4814    N        0.98210    0.25555    0.90342    1.000
    Si4815   Si       0.90476    0.29638    0.96612    1.000
    N4816    N        0.91743    0.29121    0.92372    1.000
    N4817    N        0.94105    0.30162    0.98929    1.000
    Si4818   Si       0.80722    0.32324    0.09733    1.000
    Si4819   Si       0.79002    0.31556    0.03433    1.000
    N4820    N        0.84914    0.33853    0.09407    1.000
    N4821    N        0.79152    0.34720    0.06405    1.000
    N4822    N        0.75918    0.32960    0.00656    1.000
    N4823    N        0.82777    0.30745    0.01349    1.000
    Si4824   Si       0.85300    0.34268    0.99413    1.000
    Si4825   Si       0.87204    0.31739    0.06395    1.000
    N4826    N        0.91094    0.31070    0.08265    1.000
    N4827    N        0.88082    0.33861    0.02869    1.000
    Si4828   Si       0.93346    0.33620    0.11190    1.000
    N4829    N        0.97294    0.35048    0.11415    1.000
    N4830    N        0.77401    0.35698    0.20211    1.000
    N4831    N        0.78709    0.34951    0.12633    1.000
    Si4832   Si       0.76364    0.35971    0.16024    1.000
    N4833    N        0.93671    0.34510    0.20243    1.000
    Si4834   Si       0.91173    0.31528    0.17682    1.000
    N4835    N        0.93944    0.30627    0.14492    1.000
    N4836    N        0.87549    0.32949    0.15944    1.000
    Si4837   Si       0.97615    0.32787    0.21510    1.000
    Si4838   Si       0.86850    0.35977    0.12712    1.000
    Si4839   Si       0.76998    0.32573    0.34277    1.000
    N4840    N        0.79947    0.33417    0.31265    1.000
    Si4841   Si       0.78940    0.33557    0.27090    1.000
    Si4842   Si       0.83381    0.35099    0.33509    1.000
    N4843    N        0.74784    0.34902    0.26599    1.000
    Si4844   Si       0.85592    0.35719    0.26565    1.000
    N4845    N        0.86472    0.31824    0.25155    1.000
    N4846    N        0.77305    0.36157    0.36827    1.000
    N4847    N        0.86862    0.34832    0.30856    1.000
    N4848    N        0.97415    0.31847    0.32397    1.000
    Si4849   Si       0.96692    0.34731    0.35825    1.000
    Si4850   Si       0.95453    0.33875    0.28760    1.000
    N4851    N        0.98285    0.34480    0.25638    1.000
    N4852    N        0.92348    0.30692    0.28888    1.000
    Si4853   Si       0.88007    0.30708    0.29356    1.000
    N4854    N        0.92499    0.35469    0.36070    1.000
    N4855    N        0.85157    0.34152    0.37320    1.000
    N4856    N        0.79005    0.31661    0.42657    1.000
    N4857    N        0.80865    0.33007    0.49129    1.000
    Si4858   Si       0.77189    0.35273    0.41064    1.000
    N4859    N        0.85608    0.33594    0.44237    1.000
    Si4860   Si       0.86349    0.31620    0.40484    1.000
    Si4861   Si       0.82587    0.36234    0.46293    1.000
    Si4862   Si       0.78113    0.30300    0.46838    1.000
    N4863    N        0.92039    0.35551    0.44184    1.000
    Si4864   Si       0.89218    0.33270    0.46660    1.000
    N4865    N        0.96949    0.33454    0.39899    1.000
    Si4866   Si       0.92683    0.33844    0.40182    1.000
    N4867    N        0.82081    0.32562    0.55908    1.000
    Si4868   Si       0.84102    0.32460    0.52072    1.000
    N4869    N        0.75347    0.31982    0.54065    1.000
    Si4870   Si       0.81220    0.35273    0.59157    1.000
    N4871    N        0.76804    0.35017    0.59599    1.000
    Si4872   Si       0.98790    0.35187    0.50810    1.000
    N4873    N        0.88200    0.34257    0.51212    1.000
    Si4874   Si       0.91235    0.33155    0.54183    1.000
    N4875    N        0.90006    0.34560    0.57976    1.000
    Si4876   Si       0.91289    0.32076    0.61576    1.000
    N4877    N        0.94870    0.35499    0.52787    1.000
    N4878    N        0.95062    0.30611    0.60089    1.000
    Si4879   Si       0.75407    0.31783    0.62444    1.000
    Si4880   Si       0.86033    0.31245    0.72285    1.000
    Si4881   Si       0.74686    0.34035    0.69730    1.000
    N4882    N        0.74828    0.31292    0.73131    1.000
    N4883    N        0.76543    0.31678    0.66598    1.000
    N4884    N        0.83860    0.34197    0.62537    1.000
    N4885    N        0.81495    0.31330    0.72012    1.000
    Si4886   Si       0.85471    0.31073    0.64963    1.000
    N4887    N        0.87468    0.32510    0.68405    1.000
    N4888    N        0.91255    0.35698    0.63924    1.000
    N4889    N        0.80323    0.34686    0.85086    1.000
    N4890    N        0.75124    0.30930    0.81864    1.000
    Si4891   Si       0.78669    0.32014    0.75102    1.000
    Si4892   Si       0.80799    0.35468    0.80787    1.000
    N4893    N        0.81194    0.31139    0.79222    1.000
    N4894    N        0.77766    0.35893    0.77331    1.000
    Si4895   Si       0.73759    0.34414    0.79328    1.000
    N4896    N        0.92575    0.31533    0.80293    1.000
    Si4897   Si       0.92637    0.31712    0.75953    1.000
    Si4898   Si       0.93368    0.35036    0.82714    1.000
    N4899    N        0.96206    0.34396    0.75514    1.000
    N4900    N        0.88562    0.33289    0.75007    1.000
    N4901    N        0.91716    0.34472    0.86772    1.000
    N4902    N        0.97754    0.36010    0.82431    1.000
    Si4903   Si       0.81930    0.31491    0.87488    1.000
    N4904    N        0.85834    0.32526    0.89386    1.000
    N4905    N        0.80410    0.30692    0.91372    1.000
    N4906    N        0.86871    0.32052    0.95862    1.000
    Si4907   Si       0.98512    0.36019    0.93446    1.000
    Si4908   Si       0.89891    0.30852    0.88871    1.000
    Si4909   Si       0.95909    0.34221    0.99319    1.000
    N4910    N        0.76282    0.39827    0.02336    1.000
    Si4911   Si       0.76998    0.38400    0.06406    1.000
    N4912    N        0.79692    0.41047    0.08700    1.000
    Si4913   Si       0.90303    0.37695    0.02432    1.000
    Si4914   Si       0.97137    0.39643    0.04355    1.000
    Si4915   Si       0.92122    0.40901    0.09337    1.000
    N4916    N        0.90745    0.37326    0.11139    1.000
    N4917    N        0.89934    0.41044    0.05432    1.000
    N4918    N        0.94427    0.36552    0.02736    1.000
    N4919    N        0.95998    0.42375    0.07420    1.000
    Si4920   Si       0.80279    0.38972    0.12357    1.000
    N4921    N        0.84234    0.39034    0.14037    1.000
    Si4922   Si       0.79971    0.39038    0.21660    1.000
    N4923    N        0.77447    0.40359    0.15615    1.000
    N4924    N        0.83572    0.41538    0.20955    1.000
    Si4925   Si       0.85826    0.41585    0.17322    1.000
    N4926    N        0.89994    0.40783    0.18348    1.000
    Si4927   Si       0.91650    0.38187    0.21673    1.000
    N4928    N        0.94485    0.40662    0.23762    1.000
    N4929    N        0.88429    0.38650    0.24936    1.000
    N4930    N        0.82478    0.39386    0.33675    1.000
    N4931    N        0.76417    0.40475    0.30234    1.000
    Si4932   Si       0.78200    0.39698    0.34177    1.000
    Si4933   Si       0.79688    0.40933    0.27617    1.000
    N4934    N        0.81403    0.37042    0.25770    1.000
    N4935    N        0.93277    0.37465    0.29521    1.000
    N4936    N        0.88782    0.41335    0.32857    1.000
    Si4937   Si       0.90188    0.36986    0.32698    1.000
    Si4938   Si       0.92127    0.41382    0.27331    1.000
    N4939    N        0.84466    0.39084    0.48923    1.000
    N4940    N        0.79810    0.38149    0.43478    1.000
    N4941    N        0.98118    0.36630    0.46773    1.000
    N4942    N        0.91473    0.40259    0.48584    1.000
    Si4943   Si       0.94412    0.38675    0.45985    1.000
    N4944    N        0.96478    0.41954    0.43687    1.000
    N4945    N        0.82609    0.39231    0.58109    1.000
    N4946    N        0.76160    0.40196    0.54192    1.000
    Si4947   Si       0.74886    0.36136    0.55742    1.000
    Si4948   Si       0.79668    0.41785    0.56148    1.000
    Si4949   Si       0.86147    0.41823    0.57380    1.000
    Si4950   Si       0.93718    0.39629    0.53870    1.000
    N4951    N        0.94654    0.39791    0.58230    1.000
    N4952    N        0.89344    0.40615    0.54543    1.000
    Si4953   Si       0.91176    0.38198    0.60031    1.000
    Si4954   Si       0.88245    0.38582    0.50986    1.000
    N4955    N        0.87949    0.40797    0.61506    1.000
    Si4956   Si       0.98373    0.41034    0.60204    1.000
    N4957    N        0.80856    0.40483    0.64634    1.000
    Si4958   Si       0.81502    0.39245    0.68907    1.000
    Si4959   Si       0.84534    0.38593    0.63345    1.000
    N4960    N        0.81834    0.40777    0.73046    1.000
    N4961    N        0.77783    0.37157    0.70599    1.000
    N4962    N        0.85835    0.38877    0.67583    1.000
    Si4963   Si       0.78241    0.39081    0.74621    1.000
    N4964    N        0.95851    0.41254    0.74123    1.000
    Si4965   Si       0.96406    0.37390    0.72281    1.000
    N4966    N        0.97461    0.40957    0.64430    1.000
    Si4967   Si       0.89531    0.36322    0.67815    1.000
    N4968    N        0.92488    0.37598    0.70437    1.000
    Si4969   Si       0.91913    0.41762    0.72635    1.000
    N4970    N        0.88368    0.40391    0.74768    1.000
    N4971    N        0.84493    0.37329    0.79731    1.000
    N4972    N        0.79923    0.40395    0.82666    1.000
    N4973    N        0.85016    0.39609    0.86623    1.000
    Si4974   Si       0.75928    0.41442    0.80925    1.000
    Si4975   Si       0.84405    0.41403    0.82103    1.000
    Si4976   Si       0.80466    0.38691    0.86889    1.000
    N4977    N        0.76004    0.42319    0.76746    1.000
    N4978    N        0.91045    0.38180    0.80869    1.000
    Si4979   Si       0.88066    0.36860    0.77633    1.000
    Si4980   Si       0.91972    0.42043    0.82529    1.000
    N4981    N        0.92626    0.41705    0.86991    1.000
    N4982    N        0.75393    0.37312    0.95171    1.000
    Si4983   Si       0.78141    0.39901    0.92976    1.000
    N4984    N        0.81547    0.37747    0.91497    1.000
    N4985    N        0.81640    0.37063    0.99198    1.000
    N4986    N        0.77345    0.41347    0.88896    1.000
    Si4987   Si       0.77219    0.36930    0.99120    1.000
    Si4988   Si       0.85503    0.36837    0.90172    1.000
    Si4989   Si       0.82857    0.41232    0.98609    1.000
    N4990    N        0.95388    0.37070    0.96185    1.000
    Si4991   Si       0.88990    0.40669    0.95538    1.000
    N4992    N        0.89071    0.39105    0.91530    1.000
    N4993    N        0.87835    0.38189    0.98770    1.000
    N4994    N        0.96911    0.37047    0.89637    1.000
    Si4995   Si       0.95911    0.41519    0.97010    1.000
    Si4996   Si       0.92714    0.37904    0.89194    1.000
    Si4997   Si       0.88261    0.42282    0.88109    1.000
    Si4998   Si       0.81784    0.44124    0.06609    1.000
    N4999    N        0.83617    0.43123    0.02560    1.000
    N5000    N        0.85629    0.44969    0.08547    1.000
    N5001    N        0.76555    0.47110    0.00305    1.000
    N5002    N        0.75204    0.45565    0.11770    1.000
    Si5003   Si       0.74211    0.43457    0.01697    1.000
    N5004    N        0.79489    0.47891    0.06293    1.000
    Si5005   Si       0.87375    0.44261    0.04381    1.000
    Si5006   Si       0.97789    0.46315    0.08087    1.000
    Si5007   Si       0.88027    0.46427    0.11896    1.000
    N5008    N        0.98732    0.47413    0.12228    1.000
    N5009    N        0.97842    0.42119    0.00763    1.000
    Si5010   Si       0.78476    0.46158    0.22076    1.000
    Si5011   Si       0.75745    0.44456    0.15816    1.000
    N5012    N        0.78927    0.46679    0.17796    1.000
    N5013    N        0.85760    0.45605    0.15594    1.000
    N5014    N        0.77833    0.42076    0.23656    1.000
    Si5015   Si       0.85829    0.42253    0.24413    1.000
    N5016    N        0.96779    0.43489    0.17935    1.000
    N5017    N        0.91533    0.44022    0.12381    1.000
    N5018    N        0.97266    0.47006    0.24086    1.000
    Si5019   Si       0.92568    0.43777    0.16568    1.000
    Si5020   Si       0.97810    0.42868    0.22137    1.000
    N5021    N        0.84179    0.46192    0.34770    1.000
    N5022    N        0.83285    0.43042    0.28093    1.000
    N5023    N        0.77594    0.43838    0.35790    1.000
    Si5024   Si       0.74362    0.44765    0.30711    1.000
    Si5025   Si       0.82081    0.47390    0.28333    1.000
    Si5026   Si       0.84897    0.42730    0.32252    1.000
    N5027    N        0.77744    0.47331    0.29280    1.000
    Si5028   Si       0.96008    0.47697    0.28520    1.000
    Si5029   Si       0.92248    0.44079    0.33909    1.000
    N5030    N        0.94244    0.44099    0.29995    1.000
    N5031    N        0.94955    0.42766    0.37016    1.000
    N5032    N        0.89242    0.44799    0.25938    1.000
    Si5033   Si       0.80849    0.46082    0.37680    1.000
    N5034    N        0.82374    0.44154    0.41171    1.000
    N5035    N        0.79649    0.44155    0.47582    1.000
    Si5036   Si       0.86205    0.45428    0.42967    1.000
    N5037    N        0.75069    0.42840    0.42079    1.000
    Si5038   Si       0.78960    0.42293    0.43658    1.000
    N5039    N        0.86353    0.45598    0.47588    1.000
    Si5040   Si       0.78313    0.47928    0.49329    1.000
    Si5041   Si       0.83193    0.43184    0.49706    1.000
    Si5042   Si       0.90538    0.44179    0.47154    1.000
    Si5043   Si       0.94309    0.44622    0.40989    1.000
    N5044    N        0.93216    0.47255    0.48637    1.000
    N5045    N        0.90358    0.44259    0.42777    1.000
    N5046    N        0.78254    0.44381    0.59208    1.000
    N5047    N        0.83135    0.43910    0.54029    1.000
    N5048    N        0.76804    0.46935    0.53187    1.000
    Si5049   Si       0.73852    0.43839    0.52562    1.000
    N5050    N        0.87110    0.45984    0.58380    1.000
    Si5051   Si       0.95943    0.46322    0.51730    1.000
    N5052    N        0.96848    0.42214    0.52225    1.000
    N5053    N        0.94132    0.48123    0.55293    1.000
    Si5054   Si       0.95795    0.47579    0.59352    1.000
    N5055    N        0.74917    0.43274    0.66306    1.000
    Si5056   Si       0.78322    0.43594    0.63433    1.000
    N5057    N        0.85059    0.46535    0.72010    1.000
    N5058    N        0.77687    0.47278    0.71489    1.000
    Si5059   Si       0.75769    0.47272    0.67492    1.000
    Si5060   Si       0.85025    0.43076    0.74606    1.000
    Si5061   Si       0.74667    0.45769    0.74335    1.000
    N5062    N        0.98075    0.46521    0.68401    1.000
    N5063    N        0.91583    0.44181    0.68862    1.000
    Si5064   Si       0.88699    0.47425    0.69370    1.000
    Si5065   Si       0.95025    0.44443    0.66191    1.000
    Si5066   Si       0.88786    0.45273    0.62288    1.000
    N5067    N        0.93296    0.45739    0.62404    1.000
    N5068    N        0.86926    0.47606    0.65378    1.000
    N5069    N        0.83926    0.44361    0.78653    1.000
    N5070    N        0.74749    0.45016    0.83275    1.000
    N5071    N        0.99252    0.44990    0.86851    1.000
    Si5072   Si       0.86818    0.47679    0.85141    1.000
    N5073    N        0.88163    0.43796    0.83290    1.000
    N5074    N        0.95445    0.43968    0.80794    1.000
    Si5075   Si       0.95986    0.44661    0.76802    1.000
    N5076    N        0.92147    0.45998    0.75443    1.000
    Si5077   Si       0.75366    0.44925    0.87681    1.000
    Si5078   Si       0.78204    0.46621    0.96316    1.000
    Si5079   Si       0.84934    0.46548    0.93091    1.000
    N5080    N        0.85351    0.42936    0.95360    1.000
    N5081    N        0.79151    0.42580    0.96169    1.000
    N5082    N        0.92235    0.43650    0.96399    1.000
    Si5083   Si       0.95795    0.44036    0.89533    1.000
    N5084    N        0.86368    0.46013    0.89061    1.000
    N5085    N        0.97809    0.42829    0.93366    1.000
    N5086    N        0.93277    0.47378    0.90774    1.000
    Si5087   Si       0.91927    0.47581    0.94891    1.000
    Si5088   Si       0.78851    0.49953    0.02731    1.000
    Si5089   Si       0.84581    0.52023    0.09978    1.000
    Si5090   Si       0.77698    0.48861    0.09972    1.000
    N5091    N        0.82319    0.51847    0.00644    1.000
    N5092    N        0.74637    0.51902    0.09811    1.000
    N5093    N        0.81533    0.49681    0.11901    1.000
    Si5094   Si       0.86703    0.52484    0.02686    1.000
    Si5095   Si       0.91251    0.50379    0.06693    1.000
    N5096    N        0.88646    0.50544    0.10350    1.000
    N5097    N        0.95354    0.49433    0.06536    1.000
    N5098    N        0.88498    0.48438    0.03675    1.000
    Si5099   Si       0.98367    0.51253    0.03744    1.000
    N5100    N        0.84552    0.51298    0.18212    1.000
    Si5101   Si       0.83772    0.51652    0.22603    1.000
    N5102    N        0.75164    0.48545    0.23149    1.000
    Si5103   Si       0.82457    0.48381    0.15990    1.000
    N5104    N        0.81897    0.48232    0.24021    1.000
    Si5105   Si       0.95953    0.49028    0.20102    1.000
    N5106    N        0.95179    0.53191    0.21226    1.000
    N5107    N        0.88153    0.51500    0.23148    1.000
    Si5108   Si       0.88868    0.50851    0.18791    1.000
    N5109    N        0.92079    0.47762    0.18387    1.000
    Si5110   Si       0.75347    0.50287    0.27025    1.000
    N5111    N        0.85631    0.49800    0.29323    1.000
    N5112    N        0.85723    0.53089    0.35932    1.000
    Si5113   Si       0.85624    0.53620    0.31440    1.000
    Si5114   Si       0.86885    0.48902    0.36614    1.000
    N5115    N        0.93022    0.50674    0.27467    1.000
    Si5116   Si       0.94824    0.50135    0.35994    1.000
    Si5117   Si       0.89002    0.49025    0.26555    1.000
    N5118    N        0.97298    0.49329    0.32572    1.000
    N5119    N        0.90939    0.47946    0.35589    1.000
    Si5120   Si       0.94557    0.53923    0.25429    1.000
    N5121    N        0.79691    0.50187    0.38124    1.000
    Si5122   Si       0.75455    0.51576    0.38372    1.000
    N5123    N        0.75210    0.49477    0.46625    1.000
    N5124    N        0.81747    0.50537    0.49016    1.000
    Si5125   Si       0.85969    0.49673    0.49063    1.000
    Si5126   Si       0.82273    0.53686    0.38562    1.000
    N5127    N        0.86468    0.49246    0.40853    1.000
    Si5128   Si       0.98386    0.51221    0.42413    1.000
    N5129    N        0.88623    0.52053    0.46586    1.000
    Si5130   Si       0.92648    0.51721    0.47881    1.000
    N5131    N        0.95924    0.48551    0.39861    1.000
    Si5132   Si       0.87034    0.53078    0.42811    1.000
    N5133    N        0.95957    0.52747    0.45401    1.000
    N5134    N        0.81199    0.50359    0.57437    1.000
    Si5135   Si       0.77574    0.48182    0.57294    1.000
    N5136    N        0.74072    0.50916    0.57992    1.000
    Si5137   Si       0.84278    0.47928    0.55823    1.000
    N5138    N        0.92865    0.53732    0.51638    1.000
    N5139    N        0.87416    0.49820    0.53162    1.000
    N5140    N        0.96898    0.51701    0.60585    1.000
    Si5141   Si       0.91209    0.51178    0.54675    1.000
    N5142    N        0.90446    0.53163    0.58478    1.000
    Si5143   Si       0.81596    0.49202    0.72272    1.000
    N5144    N        0.84001    0.53207    0.62937    1.000
    Si5145   Si       0.83096    0.49832    0.65584    1.000
    N5146    N        0.82871    0.52100    0.69313    1.000
    N5147    N        0.79300    0.47773    0.65053    1.000
    N5148    N        0.90370    0.51013    0.71298    1.000
    N5149    N        0.76615    0.51589    0.82900    1.000
    N5150    N        0.81231    0.50941    0.76394    1.000
    N5151    N        0.83316    0.48993    0.83394    1.000
    Si5152   Si       0.80103    0.51041    0.85358    1.000
    Si5153   Si       0.83805    0.48617    0.78970    1.000
    N5154    N        0.73963    0.49123    0.76963    1.000
    N5155    N        0.90235    0.50439    0.84891    1.000
    N5156    N        0.87534    0.50630    0.78589    1.000
    Si5157   Si       0.90755    0.50171    0.75684    1.000
    N5158    N        0.93263    0.52879    0.77976    1.000
    Si5159   Si       0.90260    0.53407    0.81597    1.000
    Si5160   Si       0.75913    0.50785    0.90815    1.000
    Si5161   Si       0.84443    0.51723    0.96346    1.000
    N5162    N        0.81604    0.48715    0.94837    1.000
    N5163    N        0.74881    0.48571    0.94419    1.000
    N5164    N        0.78408    0.48323    0.88425    1.000
    N5165    N        0.93914    0.51000    0.96898    1.000
    Si5166   Si       0.97864    0.52322    0.97620    1.000
    Si5167   Si       0.93151    0.50979    0.88203    1.000
    N5168    N        0.87934    0.49318    0.94668    1.000
    N5169    N        0.97697    0.51586    0.88138    1.000
    Si5170   Si       0.81116    0.55881    0.03210    1.000
    N5171    N        0.82426    0.58883    0.00063    1.000
    Si5172   Si       0.73980    0.54632    0.06425    1.000
    Si5173   Si       0.84122    0.58764    0.08437    1.000
    N5174    N        0.80473    0.59426    0.05972    1.000
    N5175    N        0.84269    0.54351    0.06032    1.000
    N5176    N        0.85511    0.55785    0.12005    1.000
    N5177    N        0.73861    0.58679    0.07841    1.000
    N5178    N        0.77325    0.53933    0.03658    1.000
    Si5179   Si       0.91294    0.58154    0.06039    1.000
    N5180    N        0.92814    0.56806    0.10075    1.000
    N5181    N        0.97865    0.55201    0.01068    1.000
    N5182    N        0.90666    0.54276    0.04490    1.000
    Si5183   Si       0.96602    0.57996    0.11748    1.000
    Si5184   Si       0.95959    0.59046    0.99938    1.000
    Si5185   Si       0.82814    0.58037    0.14783    1.000
    N5186    N        0.79147    0.55724    0.15551    1.000
    N5187    N        0.81331    0.54926    0.23971    1.000
    Si5188   Si       0.75103    0.55270    0.16997    1.000
    N5189    N        0.75446    0.57219    0.20773    1.000
    Si5190   Si       0.79592    0.58384    0.21727    1.000
    Si5191   Si       0.89486    0.54462    0.12172    1.000
    Si5192   Si       0.94137    0.55592    0.17954    1.000
    N5193    N        0.90456    0.54077    0.16359    1.000
    N5194    N        0.97130    0.54732    0.14651    1.000
    N5195    N        0.82522    0.56192    0.30620    1.000
    Si5196   Si       0.79232    0.56696    0.27838    1.000
    N5197    N        0.75514    0.54427    0.26950    1.000
    Si5198   Si       0.80936    0.59101    0.33641    1.000
    N5199    N        0.76897    0.59082    0.31556    1.000
    N5200    N        0.80229    0.57384    0.37385    1.000
    N5201    N        0.98376    0.55390    0.27299    1.000
    N5202    N        0.94019    0.54385    0.36093    1.000
    Si5203   Si       0.89558    0.55747    0.36318    1.000
    N5204    N        0.92886    0.58011    0.25700    1.000
    N5205    N        0.89280    0.55769    0.31481    1.000
    Si5206   Si       0.97012    0.57411    0.34864    1.000
    Si5207   Si       0.91459    0.58776    0.29826    1.000
    Si5208   Si       0.74436    0.53747    0.45403    1.000
    N5209    N        0.83887    0.57055    0.49402    1.000
    Si5210   Si       0.76927    0.58515    0.40051    1.000
    N5211    N        0.76928    0.55923    0.48199    1.000
    Si5212   Si       0.81006    0.54498    0.47117    1.000
    N5213    N        0.75509    0.54784    0.41390    1.000
    N5214    N        0.82876    0.54333    0.43037    1.000
    N5215    N        0.89356    0.55946    0.40777    1.000
    N5216    N        0.90797    0.59568    0.47904    1.000
    N5217    N        0.83615    0.56858    0.56356    1.000
    N5218    N        0.78017    0.56618    0.60360    1.000
    Si5219   Si       0.75423    0.58493    0.51432    1.000
    Si5220   Si       0.81524    0.54167    0.59314    1.000
    Si5221   Si       0.74235    0.55183    0.58626    1.000
    Si5222   Si       0.82863    0.59608    0.52937    1.000
    Si5223   Si       0.87845    0.56512    0.57552    1.000
    Si5224   Si       0.92648    0.58191    0.51553    1.000
    N5225    N        0.87623    0.58716    0.61311    1.000
    N5226    N        0.89971    0.59059    0.54760    1.000
    Si5227   Si       0.93461    0.53898    0.61694    1.000
    N5228    N        0.95139    0.57939    0.61810    1.000
    N5229    N        0.83155    0.57499    0.74023    1.000
    Si5230   Si       0.82968    0.56456    0.69770    1.000
    N5231    N        0.79580    0.58007    0.67582    1.000
    Si5232   Si       0.76091    0.57730    0.70039    1.000
    N5233    N        0.76760    0.54866    0.73131    1.000
    Si5234   Si       0.78546    0.59668    0.63620    1.000
    N5235    N        0.86563    0.58069    0.67819    1.000
    N5236    N        0.92820    0.57412    0.72248    1.000
    Si5237   Si       0.92900    0.54228    0.69377    1.000
    Si5238   Si       0.87428    0.55631    0.64280    1.000
    N5239    N        0.91320    0.53829    0.65456    1.000
    N5240    N        0.97428    0.53695    0.68630    1.000
    N5241    N        0.98797    0.57085    0.74879    1.000
    N5242    N        0.79483    0.57175    0.79896    1.000
    Si5243   Si       0.84368    0.57750    0.84614    1.000
    Si5244   Si       0.75670    0.55755    0.81786    1.000
    Si5245   Si       0.80108    0.55120    0.75986    1.000
    N5246    N        0.81483    0.55075    0.86404    1.000
    N5247    N        0.87274    0.56946    0.81409    1.000
    N5248    N        0.92622    0.56026    0.84810    1.000
    Si5249   Si       0.94723    0.56710    0.76299    1.000
    Si5250   Si       0.95796    0.58578    0.83213    1.000
    N5251    N        0.93502    0.59321    0.79483    1.000
    Si5252   Si       0.80781    0.56617    0.90677    1.000
    N5253    N        0.83312    0.55442    0.94007    1.000
    Si5254   Si       0.85415    0.57950    0.96936    1.000
    N5255    N        0.76885    0.54924    0.91410    1.000
    N5256    N        0.86687    0.58595    0.88385    1.000
    N5257    N        0.97990    0.58206    0.87654    1.000
    N5258    N        0.87788    0.54649    0.98463    1.000
    N5259    N        0.91986    0.54311    0.91300    1.000
    N5260    N        0.92962    0.58393    0.96830    1.000
    Si5261   Si       0.91381    0.54316    0.95650    1.000
    Si5262   Si       0.90880    0.57437    0.88463    1.000
    N5263    N        0.76332    0.62878    0.02645    1.000
    Si5264   Si       0.76785    0.61555    0.06792    1.000
    Si5265   Si       0.80810    0.62680    0.01789    1.000
    N5266    N        0.76409    0.64263    0.10015    1.000
    N5267    N        0.82447    0.60999    0.11810    1.000
    N5268    N        0.83247    0.65288    0.04278    1.000
    N5269    N        0.87889    0.60688    0.06505    1.000
    Si5270   Si       0.87575    0.64575    0.04789    1.000
    N5271    N        0.94154    0.60359    0.03605    1.000
    Si5272   Si       0.80099    0.64535    0.12414    1.000
    Si5273   Si       0.84765    0.63209    0.20507    1.000
    N5274    N        0.82862    0.59492    0.19122    1.000
    Si5275   Si       0.91832    0.60882    0.22676    1.000
    N5276    N        0.96641    0.62174    0.13379    1.000
    Si5277   Si       0.97537    0.61795    0.17520    1.000
    N5278    N        0.87635    0.62206    0.23475    1.000
    N5279    N        0.93834    0.59757    0.19026    1.000
    N5280    N        0.82686    0.62983    0.33688    1.000
    Si5281   Si       0.75978    0.62373    0.28824    1.000
    N5282    N        0.78431    0.60371    0.25343    1.000
    Si5283   Si       0.87117    0.63164    0.33727    1.000
    N5284    N        0.89720    0.62797    0.30316    1.000
    N5285    N        0.88271    0.59988    0.36373    1.000
    Si5286   Si       0.93917    0.64532    0.31734    1.000
    N5287    N        0.95393    0.60240    0.31278    1.000
    Si5288   Si       0.89350    0.65322    0.26588    1.000
    N5289    N        0.93154    0.64520    0.24484    1.000
    Si5290   Si       0.97110    0.59462    0.27202    1.000
    Si5291   Si       0.74416    0.64094    0.42987    1.000
    Si5292   Si       0.81869    0.63994    0.43180    1.000
    N5293    N        0.78122    0.62003    0.42514    1.000
    N5294    N        0.85474    0.61422    0.43559    1.000
    N5295    N        0.97613    0.60907    0.44766    1.000
    Si5296   Si       0.86503    0.60165    0.47672    1.000
    Si5297   Si       0.95015    0.64088    0.39297    1.000
    Si5298   Si       0.93487    0.61784    0.45667    1.000
    N5299    N        0.91760    0.62679    0.41716    1.000
    Si5300   Si       0.88448    0.60281    0.40652    1.000
    N5301    N        0.97145    0.60414    0.38099    1.000
    N5302    N        0.78774    0.61092    0.53038    1.000
    N5303    N        0.85609    0.62738    0.51084    1.000
    Si5304   Si       0.85792    0.62722    0.61633    1.000
    N5305    N        0.86399    0.64902    0.57904    1.000
    Si5306   Si       0.78190    0.65320    0.54309    1.000
    Si5307   Si       0.95779    0.64125    0.54248    1.000
    Si5308   Si       0.88248    0.63013    0.54539    1.000
    N5309    N        0.96482    0.63538    0.58441    1.000
    Si5310   Si       0.98373    0.60175    0.60239    1.000
    N5311    N        0.96346    0.60163    0.52254    1.000
    N5312    N        0.91680    0.65360    0.53553    1.000
    N5313    N        0.81412    0.62695    0.62428    1.000
    N5314    N        0.74803    0.61699    0.64430    1.000
    N5315    N        0.84120    0.63666    0.70887    1.000
    N5316    N        0.74962    0.61414    0.72448    1.000
    Si5317   Si       0.84271    0.61671    0.74630    1.000
    Si5318   Si       0.94210    0.61420    0.71115    1.000
    N5319    N        0.94566    0.64138    0.74685    1.000
    N5320    N        0.88159    0.64677    0.64719    1.000
    N5321    N        0.97993    0.61021    0.69105    1.000
    Si5322   Si       0.90626    0.65625    0.74089    1.000
    Si5323   Si       0.87241    0.62313    0.68295    1.000
    N5324    N        0.90902    0.64070    0.69914    1.000
    N5325    N        0.81982    0.63871    0.77481    1.000
    N5326    N        0.82844    0.61775    0.83639    1.000
    Si5327   Si       0.80040    0.61436    0.80316    1.000
    N5328    N        0.75865    0.62599    0.80115    1.000
    Si5329   Si       0.85509    0.65077    0.84184    1.000
    N5330    N        0.88268    0.62446    0.76063    1.000
    N5331    N        0.96089    0.63106    0.84221    1.000
    N5332    N        0.89499    0.63881    0.82774    1.000
    Si5333   Si       0.89404    0.60700    0.79866    1.000
    N5334    N        0.80745    0.61039    0.91226    1.000
    Si5335   Si       0.76884    0.62945    0.91831    1.000
    Si5336   Si       0.84953    0.61808    0.90827    1.000
    N5337    N        0.75004    0.60801    0.95266    1.000
    N5338    N        0.85887    0.65402    0.88409    1.000
    Si5339   Si       0.85484    0.65444    0.97364    1.000
    N5340    N        0.81212    0.65317    0.98205    1.000
    N5341    N        0.74111    0.62458    0.88496    1.000
    Si5342   Si       0.97690    0.65305    0.94998    1.000
    N5343    N        0.93391    0.65671    0.95853    1.000
    Si5344   Si       0.96023    0.62053    0.88485    1.000
    Si5345   Si       0.91357    0.61967    0.94682    1.000
    N5346    N        0.97603    0.65339    0.90708    1.000
    N5347    N        0.98618    0.62029    0.97851    1.000
    N5348    N        0.86832    0.61942    0.94936    1.000
    N5349    N        0.92323    0.61071    0.90455    1.000
    Si5350   Si       0.83427    0.68813    0.07209    1.000
    N5351    N        0.79349    0.70310    0.05613    1.000
    N5352    N        0.82596    0.67971    0.11457    1.000
    Si5353   Si       0.75243    0.71353    0.04870    1.000
    Si5354   Si       0.90361    0.70131    0.10350    1.000
    N5355    N        0.94429    0.68935    0.02643    1.000
    N5356    N        0.87941    0.67808    0.07654    1.000
    Si5357   Si       0.98265    0.67545    0.04385    1.000
    N5358    N        0.94151    0.68399    0.11481    1.000
    Si5359   Si       0.97602    0.66015    0.11487    1.000
    N5360    N        0.88570    0.65410    0.00513    1.000
    N5361    N        0.98636    0.71538    0.06492    1.000
    N5362    N        0.75545    0.69345    0.21154    1.000
    Si5363   Si       0.79292    0.68072    0.19375    1.000
    Si5364   Si       0.84925    0.68881    0.15053    1.000
    N5365    N        0.81938    0.66123    0.22120    1.000
    N5366    N        0.82458    0.71323    0.17891    1.000
    N5367    N        0.78881    0.64920    0.16493    1.000
    N5368    N        0.88484    0.71409    0.14214    1.000
    Si5369   Si       0.97237    0.65632    0.23699    1.000
    N5370    N        0.98037    0.65808    0.19177    1.000
    N5371    N        0.86291    0.65467    0.17047    1.000
    N5372    N        0.96768    0.69989    0.24434    1.000
    N5373    N        0.79190    0.69573    0.34014    1.000
    Si5374   Si       0.76050    0.68481    0.31059    1.000
    Si5375   Si       0.81732    0.67620    0.26093    1.000
    Si5376   Si       0.82165    0.66874    0.35467    1.000
    N5377    N        0.85503    0.67423    0.27622    1.000
    N5378    N        0.78212    0.66093    0.28199    1.000
    N5379    N        0.86736    0.67612    0.34488    1.000
    N5380    N        0.93235    0.66233    0.35726    1.000
    N5381    N        0.91451    0.68937    0.29080    1.000
    Si5382   Si       0.95582    0.70171    0.28521    1.000
    N5383    N        0.97511    0.66824    0.30410    1.000
    Si5384   Si       0.87372    0.70115    0.30652    1.000
    Si5385   Si       0.90355    0.69476    0.36533    1.000
    N5386    N        0.73740    0.66883    0.46308    1.000
    Si5387   Si       0.77347    0.68203    0.48107    1.000
    N5388    N        0.82566    0.66798    0.39796    1.000
    Si5389   Si       0.84924    0.70474    0.40305    1.000
    N5390    N        0.81000    0.66097    0.47028    1.000
    N5391    N        0.89053    0.69866    0.40683    1.000
    N5392    N        0.94326    0.65663    0.47579    1.000
    N5393    N        0.97916    0.66744    0.41372    1.000
    N5394    N        0.87425    0.69260    0.48738    1.000
    Si5395   Si       0.98298    0.65837    0.45737    1.000
    Si5396   Si       0.91505    0.68064    0.49938    1.000
    N5397    N        0.82324    0.69607    0.60272    1.000
    N5398    N        0.82032    0.67655    0.53591    1.000
    Si5399   Si       0.84814    0.68656    0.56934    1.000
    N5400    N        0.75308    0.67709    0.51974    1.000
    Si5401   Si       0.79383    0.66510    0.61336    1.000
    N5402    N        0.76360    0.65839    0.58160    1.000
    Si5403   Si       0.84138    0.66668    0.49977    1.000
    N5404    N        0.94000    0.69976    0.59248    1.000
    Si5405   Si       0.96674    0.67171    0.60773    1.000
    Si5406   Si       0.97943    0.70584    0.51484    1.000
    N5407    N        0.93662    0.71178    0.52007    1.000
    N5408    N        0.83209    0.70240    0.67940    1.000
    Si5409   Si       0.82451    0.67485    0.71336    1.000
    Si5410   Si       0.78944    0.70341    0.67369    1.000
    N5411    N        0.76932    0.68506    0.64249    1.000
    N5412    N        0.78103    0.67731    0.70909    1.000
    Si5413   Si       0.74462    0.65708    0.72132    1.000
    N5414    N        0.90477    0.70041    0.74443    1.000
    N5415    N        0.97647    0.70207    0.74130    1.000
    N5416    N        0.95619    0.65750    0.64653    1.000
    Si5417   Si       0.91784    0.66633    0.66449    1.000
    N5418    N        0.90767    0.70787    0.66726    1.000
    N5419    N        0.77833    0.69743    0.78618    1.000
    N5420    N        0.83952    0.68854    0.82234    1.000
    Si5421   Si       0.81966    0.68114    0.78272    1.000
    N5422    N        0.77022    0.67511    0.84534    1.000
    Si5423   Si       0.74981    0.66944    0.80285    1.000
    Si5424   Si       0.80331    0.70577    0.84821    1.000
    N5425    N        0.83756    0.69668    0.74544    1.000
    N5426    N        0.95285    0.68796    0.80219    1.000
    Si5427   Si       0.97074    0.66788    0.76706    1.000
    Si5428   Si       0.93048    0.66364    0.83111    1.000
    N5429    N        0.93332    0.69126    0.86604    1.000
    Si5430   Si       0.98859    0.71466    0.81724    1.000
    N5431    N        0.77117    0.67171    0.92649    1.000
    Si5432   Si       0.80086    0.68631    0.95530    1.000
    N5433    N        0.84752    0.69021    0.94864    1.000
    Si5434   Si       0.85413    0.69144    0.90413    1.000
    Si5435   Si       0.74023    0.70343    0.91684    1.000
    N5436    N        0.81953    0.71333    0.88892    1.000
    Si5437   Si       0.92014    0.67962    0.99200    1.000
    Si5438   Si       0.97347    0.68448    0.88099    1.000
    Si5439   Si       0.80547    0.74719    0.05374    1.000
    N5440    N        0.81222    0.75299    0.01101    1.000
    N5441    N        0.84488    0.73344    0.06985    1.000
    N5442    N        0.76069    0.75523    0.06476    1.000
    N5443    N        0.74668    0.71982    0.00619    1.000
    N5444    N        0.99069    0.75665    0.11924    1.000
    Si5445   Si       0.94883    0.72865    0.04807    1.000
    N5446    N        0.91613    0.73533    0.07432    1.000
    Si5447   Si       0.88075    0.75609    0.06376    1.000
    N5448    N        0.95016    0.76008    0.01780    1.000
    N5449    N        0.88206    0.76982    0.02156    1.000
    Si5450   Si       0.83285    0.75258    0.19460    1.000
    N5451    N        0.85244    0.75607    0.23425    1.000
    N5452    N        0.74750    0.75748    0.23859    1.000
    N5453    N        0.75847    0.76610    0.13678    1.000
    Si5454   Si       0.97216    0.76223    0.15829    1.000
    N5455    N        0.93007    0.76837    0.14578    1.000
    N5456    N        0.98159    0.72794    0.18225    1.000
    Si5457   Si       0.90022    0.74726    0.16734    1.000
    N5458    N        0.96962    0.76951    0.23936    1.000
    Si5459   Si       0.95846    0.73375    0.21859    1.000
    N5460    N        0.91679    0.74250    0.20892    1.000
    Si5461   Si       0.82791    0.74806    0.26813    1.000
    N5462    N        0.77204    0.76403    0.34166    1.000
    Si5463   Si       0.79420    0.73412    0.36311    1.000
    N5464    N        0.85271    0.73817    0.30208    1.000
    Si5465   Si       0.75798    0.71638    0.24884    1.000
    N5466    N        0.80204    0.71654    0.25822    1.000
    Si5467   Si       0.85962    0.76182    0.33966    1.000
    N5468    N        0.96473    0.74070    0.30161    1.000
    N5469    N        0.90179    0.73356    0.34824    1.000
    Si5470   Si       0.92074    0.76901    0.36508    1.000
    N5471    N        0.96381    0.77393    0.36500    1.000
    Si5472   Si       0.95255    0.77416    0.27639    1.000
    Si5473   Si       0.83865    0.76852    0.41805    1.000
    N5474    N        0.83603    0.74081    0.37521    1.000
    Si5475   Si       0.78901    0.73374    0.43474    1.000
    N5476    N        0.76886    0.72296    0.39875    1.000
    N5477    N        0.78034    0.72309    0.47508    1.000
    N5478    N        0.83179    0.72452    0.43590    1.000
    Si5479   Si       0.85527    0.73046    0.47221    1.000
    N5480    N        0.99005    0.75385    0.43620    1.000
    N5481    N        0.86784    0.76938    0.45524    1.000
    N5482    N        0.77084    0.74424    0.54266    1.000
    N5483    N        0.83576    0.75135    0.50578    1.000
    N5484    N        0.82950    0.75943    0.57432    1.000
    Si5485   Si       0.82419    0.73778    0.61189    1.000
    Si5486   Si       0.85968    0.75417    0.54413    1.000
    Si5487   Si       0.79195    0.75238    0.50402    1.000
    N5488    N        0.78305    0.74956    0.61589    1.000
    Si5489   Si       0.78641    0.76852    0.57630    1.000
    N5490    N        0.92794    0.76372    0.56277    1.000
    Si5491   Si       0.92071    0.72054    0.56057    1.000
    N5492    N        0.87753    0.71802    0.55811    1.000
    N5493    N        0.77389    0.74113    0.68387    1.000
    Si5494   Si       0.75296    0.75403    0.64631    1.000
    N5495    N        0.85502    0.75195    0.63934    1.000
    Si5496   Si       0.77529    0.76671    0.71924    1.000
    N5497    N        0.91934    0.76763    0.63835    1.000
    Si5498   Si       0.86916    0.72589    0.74500    1.000
    Si5499   Si       0.94031    0.73712    0.66157    1.000
    N5500    N        0.98203    0.73480    0.64725    1.000
    Si5501   Si       0.93884    0.72598    0.74101    1.000
    N5502    N        0.86816    0.75136    0.70807    1.000
    N5503    N        0.94620    0.75003    0.70482    1.000
    Si5504   Si       0.86791    0.72504    0.67238    1.000
    N5505    N        0.81527    0.74499    0.83297    1.000
    Si5506   Si       0.76389    0.73786    0.77527    1.000
    N5507    N        0.74991    0.75881    0.80950    1.000
    Si5508   Si       0.85561    0.73393    0.81992    1.000
    N5509    N        0.79754    0.75701    0.75457    1.000
    N5510    N        0.85957    0.75080    0.77966    1.000
    N5511    N        0.89570    0.74199    0.83814    1.000
    N5512    N        0.93525    0.75537    0.77160    1.000
    Si5513   Si       0.92897    0.76063    0.81518    1.000
    N5514    N        0.96646    0.74910    0.83527    1.000
    N5515    N        0.78790    0.72962    0.95221    1.000
    N5516    N        0.75843    0.73337    0.88989    1.000
    Si5517   Si       0.79624    0.74276    0.90960    1.000
    Si5518   Si       0.77372    0.74800    0.98996    1.000
    N5519    N        0.85760    0.76438    0.95704    1.000
    Si5520   Si       0.73805    0.76972    0.87877    1.000
    N5521    N        0.90427    0.71976    0.98048    1.000
    N5522    N        0.98401    0.72004    0.90205    1.000
    N5523    N        0.93520    0.76080    0.88941    1.000
    Si5524   Si       0.91533    0.75861    0.99378    1.000
    Si5525   Si       0.91263    0.72768    0.87493    1.000
    Si5526   Si       0.97676    0.75396    0.87746    1.000
    N5527    N        0.88485    0.72188    0.90855    1.000
    Si5528   Si       0.87353    0.72489    0.94981    1.000
    N5529    N        0.81229    0.79456    0.06173    1.000
    Si5530   Si       0.83919    0.80703    0.09430    1.000
    Si5531   Si       0.79298    0.80706    0.02562    1.000
    N5532    N        0.82969    0.81712    0.99960    1.000
    Si5533   Si       0.84753    0.77732    0.99772    1.000
    N5534    N        0.76187    0.79174    0.00000    1.000
    Si5535   Si       0.98347    0.79148    0.09650    1.000
    Si5536   Si       0.97762    0.79673    0.01786    1.000
    N5537    N        0.94528    0.81255    0.09773    1.000
    N5538    N        0.87806    0.78822    0.09395    1.000
    Si5539   Si       0.91087    0.79879    0.12034    1.000
    N5540    N        0.95199    0.83127    0.00930    1.000
    N5541    N        0.81471    0.81149    0.12900    1.000
    Si5542   Si       0.78184    0.78552    0.23318    1.000
    Si5543   Si       0.78725    0.79355    0.15620    1.000
    N5544    N        0.76656    0.82533    0.23342    1.000
    N5545    N        0.76391    0.82887    0.16332    1.000
    N5546    N        0.79656    0.77527    0.19376    1.000
    N5547    N        0.98177    0.79647    0.18000    1.000
    Si5548   Si       0.97941    0.80674    0.22071    1.000
    N5549    N        0.89722    0.82856    0.14855    1.000
    Si5550   Si       0.87235    0.81457    0.18026    1.000
    N5551    N        0.89484    0.80910    0.21698    1.000
    Si5552   Si       0.89257    0.77029    0.23641    1.000
    N5553    N        0.86468    0.77294    0.17238    1.000
    N5554    N        0.82996    0.79701    0.33364    1.000
    Si5555   Si       0.79188    0.79114    0.31449    1.000
    N5556    N        0.80075    0.78062    0.27252    1.000
    Si5557   Si       0.83501    0.82498    0.36760    1.000
    N5558    N        0.77275    0.82914    0.30962    1.000
    N5559    N        0.89532    0.79473    0.34036    1.000
    N5560    N        0.95609    0.80719    0.30097    1.000
    Si5561   Si       0.91096    0.81163    0.30409    1.000
    N5562    N        0.90896    0.77482    0.27655    1.000
    Si5563   Si       0.77009    0.80590    0.40245    1.000
    N5564    N        0.85174    0.80878    0.40356    1.000
    N5565    N        0.82918    0.82037    0.47332    1.000
    Si5566   Si       0.78536    0.82525    0.47809    1.000
    N5567    N        0.76951    0.78739    0.49175    1.000
    N5568    N        0.79534    0.77468    0.42208    1.000
    Si5569   Si       0.85315    0.79085    0.49325    1.000
    N5570    N        0.79279    0.83329    0.37513    1.000
    N5571    N        0.89610    0.83129    0.45545    1.000
    Si5572   Si       0.91114    0.79071    0.44648    1.000
    N5573    N        0.91833    0.77447    0.40820    1.000
    N5574    N        0.93100    0.77247    0.48242    1.000
    Si5575   Si       0.97109    0.77995    0.46766    1.000
    N5576    N        0.96243    0.80996    0.43824    1.000
    Si5577   Si       0.97786    0.78406    0.40519    1.000
    N5578    N        0.77014    0.80779    0.57987    1.000
    N5579    N        0.88888    0.80433    0.59595    1.000
    N5580    N        0.97012    0.79740    0.60972    1.000
    N5581    N        0.87881    0.79204    0.52787    1.000
    Si5582   Si       0.92274    0.78591    0.52379    1.000
    Si5583   Si       0.92986    0.78300    0.59877    1.000
    N5584    N        0.94952    0.82032    0.52889    1.000
    Si5585   Si       0.87352    0.82381    0.56091    1.000
    N5586    N        0.77886    0.80604    0.70208    1.000
    N5587    N        0.83466    0.80680    0.73502    1.000
    Si5588   Si       0.74535    0.82057    0.67862    1.000
    N5589    N        0.74170    0.79671    0.64383    1.000
    Si5590   Si       0.86947    0.79436    0.70940    1.000
    N5591    N        0.86749    0.81415    0.66998    1.000
    Si5592   Si       0.88010    0.78820    0.63729    1.000
    N5593    N        0.89547    0.81073    0.73849    1.000
    N5594    N        0.98276    0.80240    0.67724    1.000
    Si5595   Si       0.97446    0.78239    0.71465    1.000
    N5596    N        0.96009    0.81512    0.74035    1.000
    N5597    N        0.81505    0.80207    0.80439    1.000
    N5598    N        0.76840    0.79624    0.85936    1.000
    Si5599   Si       0.82980    0.78199    0.76970    1.000
    Si5600   Si       0.78658    0.77591    0.82480    1.000
    N5601    N        0.92788    0.80519    0.80676    1.000
    Si5602   Si       0.92697    0.79675    0.76206    1.000
    Si5603   Si       0.79566    0.81537    0.88596    1.000
    N5604    N        0.81486    0.78178    0.90753    1.000
    Si5605   Si       0.85063    0.79584    0.92908    1.000
    N5606    N        0.92676    0.78702    0.96343    1.000
    N5607    N        0.88762    0.80482    0.90960    1.000
    Si5608   Si       0.94187    0.82653    0.96591    1.000
    N5609    N        0.95883    0.82064    0.92204    1.000
    Si5610   Si       0.92636    0.78941    0.91929    1.000
    N5611    N        0.84439    0.85092    0.08950    1.000
    N5612    N        0.77948    0.84697    0.03803    1.000
    Si5613   Si       0.77800    0.88342    0.01006    1.000
    N5614    N        0.84868    0.88417    0.00925    1.000
    N5615    N        0.76951    0.86412    0.10611    1.000
    Si5616   Si       0.74498    0.84914    0.06416    1.000
    Si5617   Si       0.87705    0.87969    0.08450    1.000
    Si5618   Si       0.96526    0.84886    0.10066    1.000
    N5619    N        0.90713    0.86457    0.05759    1.000
    Si5620   Si       0.94243    0.86972    0.03044    1.000
    N5621    N        0.97130    0.86959    0.06357    1.000
    Si5622   Si       0.81189    0.85525    0.11789    1.000
    Si5623   Si       0.74186    0.83910    0.12868    1.000
    N5624    N        0.84152    0.84581    0.18624    1.000
    Si5625   Si       0.82809    0.88562    0.17756    1.000
    Si5626   Si       0.74434    0.83680    0.19900    1.000
    N5627    N        0.95337    0.83621    0.23703    1.000
    Si5628   Si       0.91372    0.86907    0.15484    1.000
    N5629    N        0.95490    0.86935    0.14053    1.000
    Si5630   Si       0.91077    0.84706    0.23362    1.000
    N5631    N        0.91037    0.87442    0.19927    1.000
    Si5632   Si       0.99143    0.88931    0.15109    1.000
    Si5633   Si       0.78467    0.85738    0.33994    1.000
    Si5634   Si       0.75354    0.84104    0.27295    1.000
    N5635    N        0.76545    0.88177    0.26525    1.000
    N5636    N        0.85657    0.86025    0.35810    1.000
    N5637    N        0.75238    0.88269    0.35387    1.000
    N5638    N        0.81113    0.88683    0.32200    1.000
    N5639    N        0.93354    0.86054    0.33067    1.000
    N5640    N        0.89930    0.84414    0.27611    1.000
    Si5641   Si       0.97393    0.84337    0.31668    1.000
    Si5642   Si       0.91167    0.87966    0.29825    1.000
    Si5643   Si       0.96653    0.87392    0.25647    1.000
    N5644    N        0.98867    0.87648    0.29350    1.000
    N5645    N        0.84239    0.87305    0.42788    1.000
    N5646    N        0.76382    0.83128    0.43871    1.000
    Si5647   Si       0.85532    0.83231    0.44026    1.000
    Si5648   Si       0.93411    0.87785    0.37089    1.000
    Si5649   Si       0.90936    0.87195    0.44834    1.000
    N5650    N        0.95141    0.87586    0.45859    1.000
    Si5651   Si       0.86649    0.88246    0.39480    1.000
    N5652    N        0.90652    0.87814    0.40517    1.000
    N5653    N        0.96956    0.86009    0.38781    1.000
    Si5654   Si       0.97551    0.85255    0.43112    1.000
    N5655    N        0.78339    0.87759    0.57205    1.000
    Si5656   Si       0.82304    0.86982    0.59190    1.000
    N5657    N        0.78132    0.84968    0.51417    1.000
    N5658    N        0.83095    0.83585    0.56428    1.000
    Si5659   Si       0.78649    0.83894    0.55556    1.000
    N5660    N        0.89698    0.85924    0.54967    1.000
    N5661    N        0.96337    0.86301    0.58335    1.000
    Si5662   Si       0.94063    0.85936    0.54658    1.000
    N5663    N        0.82578    0.86000    0.63240    1.000
    Si5664   Si       0.79687    0.87876    0.65831    1.000
    N5665    N        0.82334    0.87035    0.69350    1.000
    N5666    N        0.75843    0.86100    0.66908    1.000
    Si5667   Si       0.80704    0.83599    0.71662    1.000
    N5668    N        0.78326    0.86142    0.74298    1.000
    Si5669   Si       0.85679    0.85820    0.66431    1.000
    Si5670   Si       0.95744    0.85790    0.73653    1.000
    Si5671   Si       0.88482    0.85379    0.74293    1.000
    N5672    N        0.95209    0.88005    0.69532    1.000
    N5673    N        0.89084    0.87860    0.64043    1.000
    N5674    N        0.88433    0.87342    0.70212    1.000
    Si5675   Si       0.91397    0.89050    0.67526    1.000
    N5676    N        0.79863    0.87293    0.80627    1.000
    Si5677   Si       0.82670    0.84179    0.82082    1.000
    N5678    N        0.84895    0.87746    0.75838    1.000
    N5679    N        0.82309    0.83982    0.86420    1.000
    Si5680   Si       0.75597    0.88449    0.80911    1.000
    Si5681   Si       0.74491    0.88457    0.74556    1.000
    Si5682   Si       0.89727    0.89025    0.85673    1.000
    N5683    N        0.87046    0.84910    0.80937    1.000
    Si5684   Si       0.91361    0.84670    0.80751    1.000
    N5685    N        0.92734    0.85862    0.84661    1.000
    Si5686   Si       0.97075    0.86320    0.84526    1.000
    N5687    N        0.92136    0.86572    0.76603    1.000
    N5688    N        0.97061    0.87470    0.80363    1.000
    N5689    N        0.79537    0.87230    0.97232    1.000
    N5690    N        0.77310    0.84263    0.91015    1.000
    Si5691   Si       0.78497    0.87948    0.92997    1.000
    Si5692   Si       0.83422    0.85503    0.98052    1.000
    Si5693   Si       0.84091    0.87838    0.88081    1.000
    N5694    N        0.84635    0.83857    0.94034    1.000
    N5695    N        0.98300    0.89161    0.87478    1.000
    Si5696   Si       0.88746    0.84754    0.92434    1.000
    N5697    N        0.88110    0.87770    0.89602    1.000
    N5698    N        0.91230    0.85768    0.95893    1.000
    Si5699   Si       0.83983    0.91963    0.03223    1.000
    N5700    N        0.79480    0.91848    0.02733    1.000
    N5701    N        0.78764    0.93289    0.09347    1.000
    Si5702   Si       0.82899    0.92842    0.10878    1.000
    N5703    N        0.85302    0.91488    0.07252    1.000
    Si5704   Si       0.75491    0.90589    0.10291    1.000
    Si5705   Si       0.77556    0.94672    0.05388    1.000
    N5706    N        0.96611    0.93771    0.06034    1.000
    Si5707   Si       0.95336    0.94245    0.01801    1.000
    N5708    N        0.94085    0.90355    0.00499    1.000
    Si5709   Si       0.82419    0.92651    0.22274    1.000
    N5710    N        0.75638    0.94293    0.23636    1.000
    Si5711   Si       0.76098    0.90130    0.22767    1.000
    N5712    N        0.85593    0.91250    0.19690    1.000
    N5713    N        0.79728    0.89859    0.20480    1.000
    N5714    N        0.82302    0.89374    0.13570    1.000
    N5715    N        0.89505    0.94611    0.24065    1.000
    N5716    N        0.89337    0.89259    0.12381    1.000
    Si5717   Si       0.89717    0.91597    0.20605    1.000
    N5718    N        0.91700    0.93208    0.17135    1.000
    Si5719   Si       0.89273    0.93527    0.13552    1.000
    N5720    N        0.98327    0.92825    0.16865    1.000
    Si5721   Si       0.79205    0.90737    0.28955    1.000
    N5722    N        0.82171    0.92807    0.26634    1.000
    N5723    N        0.76342    0.93446    0.30523    1.000
    Si5724   Si       0.85055    0.89927    0.33738    1.000
    N5725    N        0.88616    0.90938    0.31645    1.000
    Si5726   Si       0.91295    0.94165    0.33431    1.000
    Si5727   Si       0.93149    0.93910    0.26132    1.000
    N5728    N        0.94068    0.92014    0.36002    1.000
    N5729    N        0.93200    0.89683    0.26352    1.000
    Si5730   Si       0.98059    0.93537    0.37061    1.000
    N5731    N        0.85254    0.91957    0.37613    1.000
    Si5732   Si       0.75646    0.91376    0.38474    1.000
    N5733    N        0.79120    0.93007    0.40225    1.000
    Si5734   Si       0.78345    0.92256    0.44310    1.000
    Si5735   Si       0.84149    0.89990    0.46516    1.000
    N5736    N        0.82876    0.94233    0.44846    1.000
    N5737    N        0.79699    0.89209    0.46832    1.000
    Si5738   Si       0.83130    0.94415    0.40418    1.000
    N5739    N        0.74075    0.90316    0.42520    1.000
    Si5740   Si       0.96651    0.90647    0.48438    1.000
    Si5741   Si       0.89879    0.93656    0.49095    1.000
    N5742    N        0.94007    0.94203    0.47967    1.000
    N5743    N        0.88602    0.90174    0.46853    1.000
    N5744    N        0.98911    0.93779    0.41359    1.000
    N5745    N        0.77825    0.92574    0.52482    1.000
    Si5746   Si       0.75257    0.90617    0.55594    1.000
    N5747    N        0.85605    0.89685    0.58415    1.000
    N5748    N        0.83953    0.89294    0.51475    1.000
    N5749    N        0.74189    0.93614    0.58418    1.000
    Si5750   Si       0.73719    0.94174    0.50026    1.000
    Si5751   Si       0.79651    0.88914    0.51026    1.000
    N5752    N        0.89861    0.92938    0.53484    1.000
    N5753    N        0.94445    0.92990    0.58859    1.000
    Si5754   Si       0.94061    0.93206    0.54527    1.000
    Si5755   Si       0.97735    0.90277    0.59591    1.000
    N5756    N        0.95626    0.89506    0.52587    1.000
    Si5757   Si       0.87273    0.89517    0.54391    1.000
    N5758    N        0.85181    0.92985    0.65825    1.000
    N5759    N        0.78575    0.91889    0.64422    1.000
    N5760    N        0.81311    0.92309    0.73238    1.000
    Si5761   Si       0.84850    0.89993    0.71814    1.000
    Si5762   Si       0.74269    0.92864    0.62992    1.000
    N5763    N        0.87710    0.93606    0.72415    1.000
    Si5764   Si       0.98344    0.90696    0.68072    1.000
    Si5765   Si       0.87184    0.91350    0.62117    1.000
    N5766    N        0.98002    0.94618    0.69848    1.000
    N5767    N        0.91806    0.93423    0.66242    1.000
    Si5768   Si       0.92952    0.95203    0.62183    1.000
    Si5769   Si       0.97956    0.95091    0.74159    1.000
    N5770    N        0.98839    0.91071    0.63711    1.000
    N5771    N        0.76237    0.91383    0.77540    1.000
    N5772    N        0.84014    0.93561    0.79451    1.000
    N5773    N        0.85290    0.90098    0.84610    1.000
    Si5774   Si       0.80505    0.89193    0.76619    1.000
    Si5775   Si       0.84812    0.94362    0.83693    1.000
    Si5776   Si       0.86159    0.89256    0.80186    1.000
    N5777    N        0.90320    0.90957    0.81129    1.000
    N5778    N        0.94177    0.92973    0.75335    1.000
    Si5779   Si       0.94293    0.90491    0.78959    1.000
    Si5780   Si       0.91698    0.94530    0.83275    1.000
    N5781    N        0.95693    0.93918    0.81780    1.000
    N5782    N        0.81460    0.90009    0.90628    1.000
    N5783    N        0.74815    0.89997    0.93069    1.000
    Si5784   Si       0.82021    0.94281    0.90142    1.000
    Si5785   Si       0.74765    0.94226    0.92652    1.000
    N5786    N        0.86139    0.95439    0.90495    1.000
    N5787    N        0.89333    0.93374    0.96555    1.000
    N5788    N        0.91723    0.92750    0.87400    1.000
    Si5789   Si       0.90236    0.94043    0.91701    1.000
    Si5790   Si       0.92054    0.89963    0.96607    1.000
    N5791    N        0.93973    0.91605    0.92982    1.000
    Si5792   Si       0.95743    0.92209    0.89089    1.000
    N5793    N        0.79334    0.98696    0.05151    1.000
    Si5794   Si       0.81403    0.99308    0.01492    1.000
    N5795    N        0.75454    0.99247    0.11006    1.000
    N5796    N        0.84651    0.96191    0.01564    1.000
    Si5797   Si       0.78870    0.00871    0.08752    1.000
    N5798    N        0.92185    0.97240    0.01660    1.000
    Si5799   Si       0.95731    0.96714    0.08999    1.000
    N5800    N        0.92475    0.95629    0.11468    1.000
    N5801    N        0.95206    0.00642    0.07282    1.000
    Si5802   Si       0.92248    0.01021    0.03613    1.000
    Si5803   Si       0.83623    0.00487    0.20632    1.000
    N5804    N        0.85663    0.95630    0.13022    1.000
    Si5805   Si       0.85326    0.00102    0.13301    1.000
    Si5806   Si       0.77457    0.97991    0.21637    1.000
    N5807    N        0.75697    0.98089    0.17721    1.000
    N5808    N        0.81573    0.96547    0.20916    1.000
    N5809    N        0.98421    0.97429    0.12399    1.000
    N5810    N        0.96278    0.95659    0.23454    1.000
    N5811    N        0.87836    0.99801    0.19509    1.000
    N5812    N        0.94572    0.99559    0.17596    1.000
    Si5813   Si       0.95107    0.95748    0.15300    1.000
    Si5814   Si       0.88947    0.98819    0.23488    1.000
    Si5815   Si       0.96129    0.99648    0.21734    1.000
    Si5816   Si       0.82733    0.97317    0.27849    1.000
    N5817    N        0.84114    0.97427    0.31943    1.000
    N5818    N        0.78633    0.98892    0.26918    1.000
    Si5819   Si       0.75253    0.96067    0.27509    1.000
    Si5820   Si       0.86017    0.99211    0.35322    1.000
    N5821    N        0.85330    0.00090    0.25478    1.000
    N5822    N        0.90152    0.97592    0.35676    1.000
    Si5823   Si       0.97358    0.97660    0.31057    1.000
    N5824    N        0.97068    0.97572    0.35401    1.000
    N5825    N        0.93603    0.95511    0.30017    1.000
    Si5826   Si       0.83338    0.97725    0.47615    1.000
    N5827    N        0.84223    0.98469    0.39226    1.000
    Si5828   Si       0.75555    0.99233    0.44219    1.000
    N5829    N        0.75786    0.95208    0.46345    1.000
    N5830    N        0.87465    0.97182    0.48875    1.000
    N5831    N        0.94840    0.99816    0.41530    1.000
    Si5832   Si       0.93623    0.99641    0.37290    1.000
    Si5833   Si       0.95901    0.97926    0.49453    1.000
    Si5834   Si       0.99025    0.98181    0.42342    1.000
    N5835    N        0.77808    0.99101    0.57100    1.000
    Si5836   Si       0.79639    0.96418    0.54193    1.000
    N5837    N        0.80108    0.98922    0.50586    1.000
    N5838    N        0.83488    0.95391    0.55553    1.000
    Si5839   Si       0.74067    0.97935    0.58744    1.000
    N5840    N        0.96288    0.96549    0.53557    1.000
    Si5841   Si       0.87668    0.95958    0.56121    1.000
    N5842    N        0.88776    0.99998    0.54821    1.000
    N5843    N        0.88658    0.95389    0.60489    1.000
    Si5844   Si       0.89373    0.00763    0.50715    1.000
    N5845    N        0.82355    0.98003    0.62484    1.000
    N5846    N        0.74464    0.97330    0.63029    1.000
    Si5847   Si       0.79619    0.96507    0.72736    1.000
    N5848    N        0.79848    0.97515    0.68606    1.000
    N5849    N        0.75651    0.97594    0.74476    1.000
    Si5850   Si       0.81307    0.95066    0.65354    1.000
    Si5851   Si       0.86611    0.98549    0.62850    1.000
    N5852    N        0.87362    0.99047    0.67169    1.000
    Si5853   Si       0.94578    0.96579    0.67941    1.000
    N5854    N        0.94386    0.99006    0.64076    1.000
    Si5855   Si       0.88047    0.94917    0.68294    1.000
    N5856    N        0.92037    0.98243    0.71031    1.000
    N5857    N        0.81256    0.95556    0.86029    1.000
    Si5858   Si       0.84435    0.97523    0.77926    1.000
    Si5859   Si       0.81172    0.99791    0.84990    1.000
    N5860    N        0.83303    0.00335    0.81181    1.000
    Si5861   Si       0.73818    0.94949    0.77579    1.000
    N5862    N        0.82548    0.99034    0.74371    1.000
    Si5863   Si       0.89753    0.00530    0.81293    1.000
    N5864    N        0.89077    0.98112    0.77709    1.000
    N5865    N        0.88177    0.97282    0.84166    1.000
    N5866    N        0.97149    0.98581    0.76549    1.000
    Si5867   Si       0.98824    0.96390    0.79955    1.000
    Si5868   Si       0.90853    0.95930    0.74485    1.000
    Si5869   Si       0.78252    0.99669    0.94525    1.000
    N5870    N        0.78089    0.98825    0.98794    1.000
    N5871    N        0.78832    0.95894    0.92593    1.000
    Si5872   Si       0.74419    0.99567    0.88517    1.000
    N5873    N        0.96209    0.00074    0.95614    1.000
    Si5874   Si       0.88114    0.99058    0.88335    1.000
    Si5875   Si       0.95802    0.99493    0.91135    1.000
    N5876    N        0.97705    0.96077    0.88863    1.000
    Si5877   Si       0.88340    0.96527    0.99389    1.000
    N5878    N        0.91597    0.98048    0.90876    1.000
    N5879    N        0.88251    0.00357    0.97435    1.000
