# CIF file generated by openbabel 3.1.1, see https://openbabel.org
data_I
_chemical_name_common '3.01-54.aims'
_cell_length_a 39.8603
_cell_length_b 39.8603
_cell_length_c 39.8603
_cell_angle_alpha 90
_cell_angle_beta 90
_cell_angle_gamma 90
loop_
    _atom_site_label
    _atom_site_type_symbol
    _atom_site_fract_x
    _atom_site_fract_y
    _atom_site_fract_z
    _atom_site_occupancy
    Si0      Si       0.02273    0.10051    0.07029    1.000
    Si1      Si       0.03544    0.03419    0.09018    1.000
    N2       N        0.99798    0.03261    0.11545    1.000
    N3       N        0.02092    0.01472    0.05206    1.000
    N4       N        0.99433    0.10536    0.10146    1.000
    Si5      Si       0.99309    0.03773    0.02988    1.000
    N6       N        0.99419    0.08017    0.04062    1.000
    Si7      Si       0.02105    0.18206    0.10303    1.000
    Si8      Si       0.03249    0.22483    0.03978    1.000
    N9       N        0.00354    0.15648    0.01113    1.000
    N10      N        0.03360    0.21691    0.08218    1.000
    N11      N        0.99295    0.22175    0.02589    1.000
    Si12     Si       0.04639    0.15147    0.01700    1.000
    N13      N        0.02337    0.12538    0.17189    1.000
    Si14     Si       0.01227    0.04649    0.23342    1.000
    N15      N        0.01922    0.08600    0.21818    1.000
    N16      N        0.03665    0.01714    0.21193    1.000
    N17      N        0.00574    0.19291    0.14131    1.000
    Si18     Si       0.02942    0.21642    0.16916    1.000
    Si19     Si       0.02576    0.22411    0.24085    1.000
    N20      N        0.00363    0.22450    0.20286    1.000
    Si21     Si       0.99133    0.10342    0.19001    1.000
    N22      N        0.02250    0.06081    0.27456    1.000
    N23      N        0.00432    0.08953    0.35207    1.000
    Si24     Si       0.01779    0.06252    0.31788    1.000
    Si25     Si       0.03625    0.10268    0.25959    1.000
    N26      N        0.00395    0.12844    0.27597    1.000
    Si27     Si       0.01708    0.16746    0.29193    1.000
    Si28     Si       0.01192    0.24757    0.35844    1.000
    N29      N        0.03579    0.18457    0.25461    1.000
    N30      N        0.99585    0.25042    0.25888    1.000
    N31      N        0.99130    0.21123    0.37663    1.000
    Si32     Si       0.04722    0.18412    0.35737    1.000
    Si33     Si       0.03614    0.11065    0.38011    1.000
    N34      N        0.02288    0.09370    0.41851    1.000
    N35      N        0.03278    0.09426    0.48723    1.000
    Si36     Si       0.99690    0.11622    0.49007    1.000
    N37      N        0.99798    0.15746    0.48052    1.000
    N38      N        0.02949    0.15251    0.38118    1.000
    N39      N        0.03695    0.19211    0.43476    1.000
    Si40     Si       0.00142    0.17786    0.40424    1.000
    Si41     Si       0.00967    0.19793    0.46839    1.000
    Si42     Si       0.01254    0.05589    0.59975    1.000
    N43      N        0.01704    0.07740    0.56227    1.000
    N44      N        0.02938    0.02389    0.51604    1.000
    Si45     Si       0.03681    0.07012    0.52442    1.000
    N46      N        0.02027    0.01442    0.58743    1.000
    Si47     Si       0.98973    0.02887    0.49892    1.000
    Si48     Si       0.03345    0.22079    0.54069    1.000
    N49      N        0.01573    0.24980    0.56994    1.000
    N50      N        0.02097    0.18211    0.55429    1.000
    Si51     Si       0.03675    0.18053    0.59542    1.000
    N52      N        0.02078    0.22759    0.49830    1.000
    N53      N        0.99948    0.06846    0.72547    1.000
    N54      N        0.03496    0.07991    0.63163    1.000
    Si55     Si       0.01998    0.11999    0.63782    1.000
    Si56     Si       0.02614    0.09855    0.71156    1.000
    Si57     Si       0.00884    0.02715    0.73248    1.000
    N58      N        0.01252    0.12490    0.68016    1.000
    N59      N        0.03442    0.13358    0.73730    1.000
    N60      N        0.00728    0.19054    0.62607    1.000
    Si61     Si       0.00528    0.15672    0.71047    1.000
    N62      N        0.03759    0.24865    0.64356    1.000
    N63      N        0.02511    0.19098    0.69377    1.000
    Si64     Si       0.01380    0.21623    0.66066    1.000
    Si65     Si       0.04925    0.24753    0.60250    1.000
    Si66     Si       0.02571    0.07543    0.84258    1.000
    N67      N        0.00682    0.04121    0.82572    1.000
    N68      N        0.99277    0.09534    0.86205    1.000
    N69      N        0.01894    0.22101    0.82720    1.000
    Si70     Si       0.03448    0.20578    0.78847    1.000
    Si71     Si       0.03821    0.14647    0.82079    1.000
    N72      N        0.99436    0.14892    0.81207    1.000
    N73      N        0.99683    0.20100    0.76722    1.000
    N74      N        0.03278    0.21056    0.89665    1.000
    N75      N        0.00783    0.10863    0.96167    1.000
    N76      N        0.00678    0.05757    0.92140    1.000
    Si77     Si       0.99202    0.06668    0.96215    1.000
    N78      N        0.99286    0.03097    0.98717    1.000
    N79      N        0.00889    0.17654    0.94393    1.000
    Si80     Si       0.00446    0.21695    0.92951    1.000
    N81      N        0.99926    0.24759    0.95761    1.000
    Si82     Si       0.02657    0.16550    0.90181    1.000
    Si83     Si       0.98805    0.14799    0.97068    1.000
    N84      N        0.98774    0.15870    0.88287    1.000
    N85      N        0.01795    0.35034    0.08790    1.000
    Si86     Si       0.03542    0.31573    0.06701    1.000
    N87      N        0.99697    0.30002    0.05494    1.000
    Si88     Si       0.98877    0.30706    0.01262    1.000
    N89      N        0.01968    0.43650    0.08571    1.000
    N90      N        0.04286    0.44394    0.01404    1.000
    Si91     Si       0.99702    0.50985    0.09626    1.000
    Si92     Si       0.99653    0.34385    0.23119    1.000
    Si93     Si       0.03943    0.34227    0.18849    1.000
    N94      N        0.03607    0.32854    0.14736    1.000
    Si95     Si       0.02704    0.28700    0.13390    1.000
    N96      N        0.02684    0.31434    0.22079    1.000
    N97      N        0.00246    0.36727    0.19366    1.000
    N98      N        0.00691    0.44511    0.16031    1.000
    Si99     Si       0.99882    0.46926    0.23829    1.000
    Si100    Si       0.01489    0.41894    0.12601    1.000
    N101     N        0.00581    0.50093    0.20799    1.000
    N102     N        0.02928    0.43998    0.23179    1.000
    Si103    Si       0.02337    0.48427    0.17121    1.000
    N104     N        0.01826    0.36344    0.32513    1.000
    N105     N        0.03341    0.30017    0.28755    1.000
    N106     N        0.01818    0.36603    0.26244    1.000
    Si107    Si       0.99731    0.27717    0.29294    1.000
    Si108    Si       0.03977    0.34328    0.29361    1.000
    Si109    Si       0.03230    0.40803    0.26489    1.000
    N110     N        0.00605    0.42409    0.29379    1.000
    Si111    Si       0.00652    0.46279    0.31390    1.000
    N112     N        0.04567    0.46720    0.33698    1.000
    Si113    Si       0.99389    0.48819    0.38294    1.000
    N114     N        0.01527    0.28700    0.37686    1.000
    N115     N        0.00557    0.28532    0.46463    1.000
    Si116    Si       0.01447    0.32555    0.44863    1.000
    N117     N        0.00724    0.35165    0.48286    1.000
    Si118    Si       0.03628    0.26698    0.48852    1.000
    N119     N        0.02779    0.42094    0.45674    1.000
    Si120    Si       0.99262    0.40854    0.38862    1.000
    N121     N        0.00805    0.49383    0.45590    1.000
    Si122    Si       0.00200    0.45287    0.44316    1.000
    N123     N        0.00114    0.44970    0.40069    1.000
    N124     N        0.03105    0.38948    0.39150    1.000
    Si125    Si       0.01459    0.39629    0.49033    1.000
    Si126    Si       0.02789    0.29260    0.56345    1.000
    Si127    Si       0.01180    0.34223    0.60302    1.000
    N128     N        0.03638    0.29747    0.52170    1.000
    N129     N        0.04230    0.34402    0.56891    1.000
    Si130    Si       0.04487    0.33941    0.50992    1.000
    N131     N        0.99044    0.30472    0.58223    1.000
    Si132    Si       0.00461    0.47815    0.72326    1.000
    N133     N        0.01666    0.41371    0.57065    1.000
    Si134    Si       0.02333    0.44967    0.59408    1.000
    Si135    Si       0.03957    0.44391    0.66982    1.000
    N136     N        0.99901    0.44869    0.68679    1.000
    N137     N        0.03294    0.34585    0.64052    1.000
    N138     N        0.00751    0.37443    0.70005    1.000
    N139     N        0.01153    0.29991    0.68624    1.000
    Si140    Si       0.00391    0.33958    0.67237    1.000
    Si141    Si       0.04177    0.26591    0.74000    1.000
    Si142    Si       0.04623    0.38253    0.71770    1.000
    N143     N        0.99960    0.25840    0.73686    1.000
    N144     N        0.04587    0.43282    0.62717    1.000
    N145     N        0.04134    0.46205    0.74193    1.000
    N146     N        0.01519    0.32159    0.80538    1.000
    Si147    Si       0.02700    0.33709    0.84504    1.000
    N148     N        0.03295    0.36759    0.75630    1.000
    N149     N        0.03501    0.38080    0.84493    1.000
    N150     N        0.99196    0.32905    0.87023    1.000
    N151     N        0.01227    0.43766    0.79939    1.000
    Si152    Si       0.00391    0.40212    0.82442    1.000
    Si153    Si       0.03123    0.27736    0.95484    1.000
    N154     N        0.03180    0.30364    0.92085    1.000
    Si155    Si       0.01338    0.36452    0.97730    1.000
    N156     N        0.02655    0.30157    0.99108    1.000
    Si157    Si       0.99318    0.32193    0.91186    1.000
    Si158    Si       0.02588    0.46454    0.91919    1.000
    N159     N        0.99781    0.40431    0.98233    1.000
    Si160    Si       0.00413    0.44437    0.99541    1.000
    N161     N        0.01075    0.47024    0.96018    1.000
    N162     N        0.02474    0.42479    0.89984    1.000
    N163     N        0.98848    0.47537    0.89901    1.000
    N164     N        0.00972    0.60882    0.07953    1.000
    Si165    Si       0.03774    0.61939    0.04850    1.000
    Si166    Si       0.03265    0.54376    0.03665    1.000
    N167     N        0.99219    0.56026    0.03738    1.000
    N168     N        0.03469    0.51619    0.07229    1.000
    Si169    Si       0.00068    0.63270    0.11642    1.000
    N170     N        0.01828    0.64833    0.02225    1.000
    Si171    Si       0.02001    0.71004    0.10287    1.000
    N172     N        0.03242    0.71126    0.06193    1.000
    N173     N        0.02318    0.66820    0.11318    1.000
    Si174    Si       0.04980    0.68186    0.03758    1.000
    N175     N        0.00251    0.70722    0.99559    1.000
    N176     N        0.99786    0.73672    0.18051    1.000
    N177     N        0.04671    0.56241    0.13609    1.000
    N178     N        0.99780    0.61453    0.22695    1.000
    N179     N        0.00968    0.61268    0.15280    1.000
    Si180    Si       0.00336    0.55590    0.14175    1.000
    Si181    Si       0.04386    0.60891    0.23008    1.000
    Si182    Si       0.04111    0.73364    0.17651    1.000
    N183     N        0.04746    0.65181    0.22158    1.000
    N184     N        0.04639    0.73042    0.13285    1.000
    Si185    Si       0.00477    0.65621    0.23089    1.000
    N186     N        0.01433    0.50920    0.13763    1.000
    N187     N        0.03536    0.53336    0.30423    1.000
    Si188    Si       0.04222    0.60783    0.35483    1.000
    Si189    Si       0.99425    0.53143    0.28832    1.000
    N190     N        0.02004    0.63705    0.33066    1.000
    Si191    Si       0.00589    0.66882    0.36117    1.000
    N192     N        0.03969    0.69483    0.35794    1.000
    N193     N        0.99698    0.74177    0.31236    1.000
    N194     N        0.01084    0.75731    0.37506    1.000
    Si195    Si       0.04671    0.73893    0.35821    1.000
    N196     N        0.99293    0.73657    0.24953    1.000
    N197     N        0.01652    0.58412    0.37736    1.000
    N198     N        0.02638    0.51652    0.37639    1.000
    Si199    Si       0.02723    0.52639    0.47773    1.000
    N200     N        0.02435    0.57275    0.49009    1.000
    Si201    Si       0.01749    0.54953    0.40365    1.000
    N202     N        0.04283    0.54666    0.43783    1.000
    N203     N        0.99230    0.62858    0.45966    1.000
    N204     N        0.00186    0.64472    0.39542    1.000
    Si205    Si       0.99301    0.70876    0.46259    1.000
    Si206    Si       0.02294    0.64567    0.43530    1.000
    N207     N        0.02900    0.68668    0.44720    1.000
    Si208    Si       0.98987    0.58640    0.46563    1.000
    Si209    Si       0.00847    0.55980    0.53121    1.000
    Si210    Si       0.01064    0.62172    0.57170    1.000
    N211     N        0.99886    0.60846    0.61117    1.000
    Si212    Si       0.03562    0.52106    0.58631    1.000
    N213     N        0.04202    0.55363    0.55844    1.000
    N214     N        0.99073    0.52530    0.50845    1.000
    N215     N        0.00450    0.70918    0.50483    1.000
    Si216    Si       0.03308    0.74020    0.51230    1.000
    N217     N        0.01936    0.72874    0.59715    1.000
    N218     N        0.00211    0.66371    0.56267    1.000
    Si219    Si       0.00174    0.53124    0.66237    1.000
    Si220    Si       0.01498    0.60486    0.64995    1.000
    N221     N        0.00224    0.57227    0.67648    1.000
    Si222    Si       0.01302    0.55946    0.71798    1.000
    N223     N        0.02377    0.60248    0.72908    1.000
    N224     N        0.02786    0.52015    0.63081    1.000
    N225     N        0.01239    0.51443    0.70218    1.000
    Si226    Si       0.99799    0.69883    0.72912    1.000
    N227     N        0.04464    0.67318    0.63223    1.000
    Si228    Si       0.00941    0.67739    0.65778    1.000
    N229     N        0.02219    0.69960    0.69299    1.000
    N230     N        0.99994    0.63838    0.67316    1.000
    N231     N        0.99126    0.51837    0.57323    1.000
    N232     N        0.98673    0.59507    0.54605    1.000
    Si233    Si       0.99280    0.69649    0.58762    1.000
    N234     N        0.01951    0.55564    0.80701    1.000
    N235     N        0.02988    0.51774    0.86521    1.000
    Si236    Si       0.02033    0.51502    0.82382    1.000
    Si237    Si       0.01355    0.69170    0.80127    1.000
    N238     N        0.01649    0.72077    0.83088    1.000
    N239     N        0.02776    0.71176    0.76389    1.000
    N240     N        0.04189    0.66175    0.80998    1.000
    Si241    Si       0.02933    0.75549    0.75036    1.000
    N242     N        0.03313    0.74940    0.95997    1.000
    Si243    Si       0.00844    0.51287    0.96597    1.000
    N244     N        0.00637    0.53558    0.92846    1.000
    N245     N        0.01407    0.59899    0.90330    1.000
    Si246    Si       0.99423    0.51779    0.89189    1.000
    N247     N        0.99677    0.58971    0.97386    1.000
    Si248    Si       0.01408    0.62856    0.98025    1.000
    N249     N        0.03737    0.52404    0.99607    1.000
    Si250    Si       0.04041    0.70827    0.97174    1.000
    N251     N        0.04663    0.74312    0.88979    1.000
    Si252    Si       0.02211    0.71016    0.87389    1.000
    N253     N        0.02203    0.66568    0.87425    1.000
    Si254    Si       0.00030    0.64125    0.90378    1.000
    Si255    Si       0.00299    0.75472    0.92595    1.000
    N256     N        0.02020    0.65053    0.94280    1.000
    N257     N        0.03394    0.80116    0.06440    1.000
    Si258    Si       0.01597    0.80679    0.02545    1.000
    Si259    Si       0.00339    0.80731    0.09778    1.000
    N260     N        0.99194    0.84942    0.09575    1.000
    Si261    Si       0.02604    0.90614    0.03392    1.000
    N262     N        0.02349    0.94935    0.08904    1.000
    N263     N        0.03653    0.94824    0.02334    1.000
    Si264    Si       0.01728    0.97214    0.05184    1.000
    Si265    Si       0.02069    0.85376    0.19795    1.000
    N266     N        0.01115    0.78933    0.13620    1.000
    N267     N        0.01518    0.81570    0.22047    1.000
    Si268    Si       0.00055    0.87750    0.12857    1.000
    Si269    Si       0.04655    0.80243    0.15792    1.000
    N270     N        0.99557    0.96105    0.20976    1.000
    N271     N        0.02934    0.89512    0.20960    1.000
    Si272    Si       0.03121    0.97894    0.19288    1.000
    Si273    Si       0.00389    0.92395    0.22998    1.000
    N274     N        0.02221    0.97944    0.14949    1.000
    N275     N        0.04235    0.88470    0.12599    1.000
    N276     N        0.98897    0.77509    0.02013    1.000
    N277     N        0.02085    0.88077    0.99915    1.000
    N278     N        0.04119    0.86635    0.34325    1.000
    Si279    Si       0.00628    0.76743    0.27726    1.000
    N280     N        0.04847    0.77623    0.26730    1.000
    N281     N        0.02409    0.98394    0.30732    1.000
    Si282    Si       0.03492    0.94361    0.29578    1.000
    Si283    Si       0.00795    0.89382    0.34778    1.000
    N284     N        0.00377    0.92085    0.31529    1.000
    N285     N        0.03903    0.93360    0.25498    1.000
    Si286    Si       0.04203    0.84180    0.37945    1.000
    N287     N        0.02408    0.84043    0.47417    1.000
    N288     N        0.03472    0.78947    0.43468    1.000
    N289     N        0.00044    0.83524    0.40122    1.000
    Si290    Si       0.00022    0.77306    0.41520    1.000
    Si291    Si       0.04072    0.79891    0.47752    1.000
    Si292    Si       0.99228    0.84132    0.44458    1.000
    N293     N        0.02648    0.97216    0.42250    1.000
    Si294    Si       0.02439    0.96301    0.38181    1.000
    N295     N        0.02809    0.92002    0.37810    1.000
    N296     N        0.99129    0.94694    0.47492    1.000
    Si297    Si       0.99001    0.98120    0.44298    1.000
    N298     N        0.04425    0.90757    0.49859    1.000
    N299     N        0.01257    0.79772    0.58437    1.000
    Si300    Si       0.00478    0.81037    0.54366    1.000
    N301     N        0.02998    0.84614    0.53906    1.000
    N302     N        0.01635    0.78113    0.51302    1.000
    Si303    Si       0.01981    0.87174    0.50423    1.000
    Si304    Si       0.04256    0.81694    0.60704    1.000
    Si305    Si       0.99564    0.76473    0.60699    1.000
    Si306    Si       0.02226    0.92638    0.57622    1.000
    N307     N        0.01526    0.95859    0.54306    1.000
    N308     N        0.02158    0.94676    0.61483    1.000
    Si309    Si       0.03410    0.99801    0.55080    1.000
    Si310    Si       0.99920    0.98283    0.60929    1.000
    Si311    Si       0.02686    0.94642    0.50006    1.000
    N312     N        0.02403    0.92626    0.74337    1.000
    N313     N        0.02436    0.85460    0.62377    1.000
    N314     N        0.03895    0.76356    0.70764    1.000
    Si315    Si       0.02155    0.79230    0.67818    1.000
    N316     N        0.01901    0.83467    0.69013    1.000
    Si317    Si       0.04038    0.86253    0.66523    1.000
    N318     N        0.99192    0.77777    0.64902    1.000
    Si319    Si       0.99195    0.83316    0.72458    1.000
    N320     N        0.02800    0.90223    0.67833    1.000
    Si321    Si       0.99833    0.90973    0.71023    1.000
    Si322    Si       0.99482    0.97763    0.68159    1.000
    N323     N        0.03630    0.97366    0.67608    1.000
    Si324    Si       0.04016    0.93536    0.65210    1.000
    N325     N        0.01384    0.78744    0.84714    1.000
    N326     N        0.02647    0.83136    0.75663    1.000
    N327     N        0.99817    0.77234    0.77720    1.000
    Si328    Si       0.99685    0.81695    0.78497    1.000
    Si329    Si       0.99643    0.88480    0.82297    1.000
    N330     N        0.03362    0.89914    0.80729    1.000
    N331     N        0.00481    0.96357    0.81443    1.000
    Si332    Si       0.01215    0.93031    0.78519    1.000
    Si333    Si       0.01897    0.00501    0.80538    1.000
    N334     N        0.99637    0.00985    0.77030    1.000
    Si335    Si       0.01101    0.83681    0.92550    1.000
    N336     N        0.99384    0.84889    0.88888    1.000
    Si337    Si       0.04287    0.78546    0.87900    1.000
    N338     N        0.01632    0.79475    0.91518    1.000
    N339     N        0.03825    0.81640    0.98977    1.000
    N340     N        0.01517    0.97848    0.94605    1.000
    Si341    Si       0.99636    0.75729    0.81855    1.000
    Si342    Si       0.00446    0.94978    0.91328    1.000
    N343     N        0.04799    0.94309    0.90840    1.000
    N344     N        0.99550    0.84248    0.81947    1.000
    Si345    Si       0.09553    0.07527    0.09599    1.000
    N346     N        0.05141    0.07364    0.09105    1.000
    N347     N        0.05160    0.12861    0.05464    1.000
    Si348    Si       0.08240    0.14649    0.08257    1.000
    N349     N        0.05871    0.19358    0.02386    1.000
    Si350    Si       0.06326    0.24967    0.08726    1.000
    N351     N        0.09794    0.23812    0.10920    1.000
    N352     N        0.05531    0.15744    0.11326    1.000
    Si353    Si       0.10317    0.19670    0.03012    1.000
    N354     N        0.10464    0.18218    0.07118    1.000
    Si355    Si       0.07605    0.02596    0.19797    1.000
    N356     N        0.08745    0.12285    0.16596    1.000
    N357     N        0.07684    0.06702    0.18753    1.000
    N358     N        0.06394    0.12509    0.23024    1.000
    Si359    Si       0.05519    0.10328    0.19409    1.000
    N360     N        0.10518    0.01081    0.22702    1.000
    Si361    Si       0.05590    0.15177    0.15658    1.000
    Si362    Si       0.06656    0.16935    0.22772    1.000
    N363     N        0.05912    0.18601    0.18349    1.000
    Si364    Si       0.10009    0.23623    0.22726    1.000
    N365     N        0.06099    0.25180    0.23615    1.000
    N366     N        0.10561    0.19258    0.22789    1.000
    N367     N        0.04694    0.25233    0.15173    1.000
    N368     N        0.05946    0.25829    0.04412    1.000
    Si369    Si       0.08954    0.25792    0.15033    1.000
    N370     N        0.07427    0.10411    0.35971    1.000
    Si371    Si       0.09196    0.06570    0.35422    1.000
    N372     N        0.06866    0.10508    0.29075    1.000
    N373     N        0.05478    0.04708    0.33394    1.000
    Si374    Si       0.07687    0.13019    0.32507    1.000
    Si375    Si       0.10208    0.10366    0.26354    1.000
    N376     N        0.04819    0.16253    0.32006    1.000
    N377     N        0.08774    0.06650    0.45461    1.000
    N378     N        0.07536    0.12988    0.43340    1.000
    N379     N        0.09773    0.04133    0.38918    1.000
    Si380    Si       0.05395    0.09335    0.44901    1.000
    Si381    Si       0.07404    0.17313    0.42325    1.000
    Si382    Si       0.08262    0.23307    0.37434    1.000
    N383     N        0.08373    0.19069    0.38350    1.000
    Si384    Si       0.10995    0.06876    0.49384    1.000
    N385     N        0.04895    0.22787    0.34597    1.000
    N386     N        0.07939    0.06389    0.52841    1.000
    Si387    Si       0.08871    0.12374    0.61168    1.000
    Si388    Si       0.06717    0.20541    0.69969    1.000
    N389     N        0.07642    0.22734    0.53311    1.000
    N390     N        0.06839    0.21003    0.59221    1.000
    Si391    Si       0.10220    0.21672    0.56537    1.000
    Si392    Si       0.10146    0.24568    0.50291    1.000
    N393     N        0.05063    0.14363    0.61433    1.000
    Si394    Si       0.06906    0.07050    0.65770    1.000
    Si395    Si       0.09545    0.07498    0.72775    1.000
    N396     N        0.10074    0.09668    0.64248    1.000
    N397     N        0.06196    0.07935    0.70010    1.000
    N398     N        0.07638    0.02682    0.65350    1.000
    N399     N        0.05003    0.01311    0.72592    1.000
    N400     N        0.05932    0.24755    0.70475    1.000
    N401     N        0.08939    0.18396    0.73076    1.000
    N402     N        0.08838    0.19227    0.66523    1.000
    Si403    Si       0.08368    0.09123    0.84481    1.000
    N404     N        0.09711    0.11217    0.75318    1.000
    N405     N        0.06014    0.14021    0.91678    1.000
    N406     N        0.04897    0.10528    0.82039    1.000
    N407     N        0.10788    0.11953    0.86667    1.000
    N408     N        0.05780    0.16919    0.78909    1.000
    Si409    Si       0.07163    0.14924    0.75444    1.000
    Si410    Si       0.09247    0.24273    0.80135    1.000
    N411     N        0.08531    0.22647    0.84212    1.000
    N412     N        0.05629    0.24159    0.77659    1.000
    N413     N        0.05122    0.16430    0.85731    1.000
    N414     N        0.05736    0.06692    0.86988    1.000
    N415     N        0.06947    0.12777    0.98805    1.000
    N416     N        0.07096    0.07618    0.94075    1.000
    N417     N        0.06669    0.01223    0.91231    1.000
    Si418    Si       0.04957    0.11292    0.94978    1.000
    N419     N        0.06913    0.25799    0.94917    1.000
    Si420    Si       0.08761    0.15293    0.88384    1.000
    Si421    Si       0.04817    0.20909    0.85679    1.000
    Si422    Si       0.05001    0.05308    0.91087    1.000
    N423     N        0.06497    0.33114    0.04051    1.000
    N424     N        0.09168    0.35033    0.10031    1.000
    Si425    Si       0.09453    0.36106    0.05486    1.000
    N426     N        0.05503    0.29104    0.09908    1.000
    Si427    Si       0.09822    0.30571    0.10106    1.000
    Si428    Si       0.09756    0.27399    0.03125    1.000
    Si429    Si       0.05131    0.35618    0.11724    1.000
    N430     N        0.05074    0.39517    0.13720    1.000
    Si431    Si       0.06362    0.32256    0.99701    1.000
    N432     N        0.09250    0.51006    0.10918    1.000
    Si433    Si       0.07688    0.50192    0.06795    1.000
    N434     N        0.06747    0.39407    0.05861    1.000
    N435     N        0.08434    0.45891    0.06698    1.000
    Si436    Si       0.05144    0.43390    0.05505    1.000
    N437     N        0.07719    0.36016    0.19306    1.000
    N438     N        0.09395    0.31239    0.24562    1.000
    N439     N        0.08974    0.42687    0.19567    1.000
    Si440    Si       0.07369    0.44468    0.23012    1.000
    N441     N        0.06362    0.49711    0.17187    1.000
    Si442    Si       0.10028    0.49920    0.19529    1.000
    Si443    Si       0.08039    0.39562    0.16717    1.000
    N444     N        0.09286    0.48207    0.23662    1.000
    Si445    Si       0.05425    0.29381    0.24802    1.000
    N446     N        0.08193    0.35367    0.29855    1.000
    N447     N        0.06836    0.33079    0.35777    1.000
    Si448    Si       0.10035    0.32995    0.32805    1.000
    Si449    Si       0.04808    0.36983    0.35622    1.000
    Si450    Si       0.04946    0.51144    0.34119    1.000
    Si451    Si       0.05568    0.40777    0.42517    1.000
    N452     N        0.08035    0.39976    0.35148    1.000
    N453     N        0.07382    0.41304    0.26341    1.000
    Si454    Si       0.07538    0.44210    0.36236    1.000
    Si455    Si       0.08511    0.34366    0.44470    1.000
    Si456    Si       0.09805    0.27098    0.43456    1.000
    N457     N        0.08184    0.33462    0.48751    1.000
    N458     N        0.07524    0.26657    0.39957    1.000
    Si459    Si       0.05577    0.30463    0.38829    1.000
    N460     N        0.07611    0.25846    0.47091    1.000
    N461     N        0.07450    0.44222    0.40556    1.000
    Si462    Si       0.10572    0.50085    0.47837    1.000
    N463     N        0.10098    0.50615    0.43234    1.000
    N464     N        0.08946    0.38714    0.44345    1.000
    N465     N        0.05081    0.32738    0.42527    1.000
    Si466    Si       0.08092    0.32492    0.58078    1.000
    N467     N        0.06532    0.28561    0.58686    1.000
    N468     N        0.10375    0.33156    0.61844    1.000
    N469     N        0.10639    0.33973    0.54859    1.000
    N470     N        0.08699    0.39945    0.57578    1.000
    Si471    Si       0.09393    0.48604    0.58316    1.000
    Si472    Si       0.08527    0.41742    0.61716    1.000
    N473     N        0.09486    0.49788    0.72953    1.000
    N474     N        0.08083    0.36031    0.70400    1.000
    Si475    Si       0.07924    0.34482    0.65362    1.000
    Si476    Si       0.09108    0.32002    0.71601    1.000
    N477     N        0.08105    0.30554    0.67518    1.000
    Si478    Si       0.04654    0.27619    0.67446    1.000
    N479     N        0.05944    0.30473    0.74359    1.000
    Si480    Si       0.10388    0.39841    0.69450    1.000
    N481     N        0.06382    0.47856    0.67864    1.000
    N482     N        0.06125    0.41871    0.69826    1.000
    Si483    Si       0.07849    0.45691    0.71509    1.000
    N484     N        0.09611    0.38687    0.64923    1.000
    N485     N        0.04791    0.38388    0.51641    1.000
    N486     N        0.04851    0.48108    0.57631    1.000
    Si487    Si       0.04901    0.38750    0.55873    1.000
    N488     N        0.08134    0.34265    0.80060    1.000
    N489     N        0.06242    0.31741    0.86069    1.000
    Si490    Si       0.09458    0.31373    0.83153    1.000
    Si491    Si       0.09992    0.38189    0.79941    1.000
    Si492    Si       0.04672    0.33092    0.77576    1.000
    Si493    Si       0.09301    0.44917    0.91759    1.000
    N494     N        0.08513    0.42324    0.78717    1.000
    N495     N        0.05438    0.48845    0.80539    1.000
    N496     N        0.09908    0.50037    0.85976    1.000
    Si497    Si       0.09204    0.50715    0.81743    1.000
    Si498    Si       0.05134    0.45123    0.78364    1.000
    Si499    Si       0.10737    0.27901    0.95262    1.000
    N500     N        0.05555    0.35999    0.97696    1.000
    N501     N        0.06267    0.36631    0.90951    1.000
    Si502    Si       0.06655    0.32262    0.90402    1.000
    N503     N        0.10263    0.31033    0.92339    1.000
    Si504    Si       0.08114    0.37913    0.94807    1.000
    N505     N        0.09871    0.29732    0.99367    1.000
    N506     N        0.08970    0.42224    0.88009    1.000
    N507     N        0.06445    0.48316    0.91311    1.000
    Si508    Si       0.05276    0.39693    0.88066    1.000
    N509     N        0.07946    0.42359    0.94984    1.000
    N510     N        0.09759    0.47869    0.98499    1.000
    Si511    Si       0.07916    0.44018    0.99045    1.000
    N512     N        0.08887    0.52559    0.03510    1.000
    N513     N        0.05673    0.58423    0.03216    1.000
    N514     N        0.06571    0.65100    0.06390    1.000
    Si515    Si       0.06494    0.65953    0.10579    1.000
    N516     N        0.09244    0.69240    0.10736    1.000
    N517     N        0.07015    0.70477    0.00702    1.000
    Si518    Si       0.10112    0.73523    0.00736    1.000
    Si519    Si       0.08834    0.73276    0.12090    1.000
    Si520    Si       0.05832    0.51993    0.13413    1.000
    N521     N        0.07514    0.62889    0.13468    1.000
    Si522    Si       0.10408    0.57773    0.19741    1.000
    N523     N        0.06221    0.58991    0.19574    1.000
    Si524    Si       0.08339    0.67334    0.21146    1.000
    N525     N        0.07271    0.71302    0.19740    1.000
    Si526    Si       0.09758    0.74992    0.19984    1.000
    N527     N        0.11545    0.65315    0.18703    1.000
    Si528    Si       0.05157    0.60049    0.15491    1.000
    N529     N        0.10912    0.75166    0.15416    1.000
    N530     N        0.07175    0.58749    0.32795    1.000
    N531     N        0.09053    0.52301    0.34538    1.000
    Si532    Si       0.06743    0.55848    0.29113    1.000
    Si533    Si       0.08554    0.61885    0.29814    1.000
    N534     N        0.06125    0.59648    0.26897    1.000
    Si535    Si       0.10300    0.56417    0.35573    1.000
    N536     N        0.10470    0.54124    0.27409    1.000
    N537     N        0.10888    0.67049    0.24734    1.000
    N538     N        0.08489    0.66095    0.31150    1.000
    Si539    Si       0.07462    0.66986    0.35380    1.000
    N540     N        0.06975    0.75654    0.32695    1.000
    N541     N        0.06720    0.63552    0.37714    1.000
    N542     N        0.05716    0.61909    0.44183    1.000
    Si543    Si       0.08657    0.61297    0.40861    1.000
    Si544    Si       0.06232    0.58930    0.47409    1.000
    N545     N        0.09160    0.57054    0.39684    1.000
    Si546    Si       0.08539    0.54546    0.43110    1.000
    N547     N        0.10034    0.56667    0.46583    1.000
    N548     N        0.06679    0.51342    0.49184    1.000
    N549     N        0.10328    0.69822    0.44033    1.000
    N550     N        0.07498    0.74341    0.39390    1.000
    Si551    Si       0.06566    0.69959    0.46710    1.000
    N552     N        0.05744    0.74263    0.47742    1.000
    Si553    Si       0.10661    0.71557    0.40014    1.000
    Si554    Si       0.10956    0.68770    0.28507    1.000
    Si555    Si       0.06924    0.58615    0.54993    1.000
    N556     N        0.07469    0.60701    0.51223    1.000
    N557     N        0.08634    0.52134    0.60732    1.000
    N558     N        0.05606    0.62192    0.57111    1.000
    N559     N        0.10712    0.57790    0.57254    1.000
    N560     N        0.08208    0.69522    0.58046    1.000
    Si561    Si       0.08791    0.65146    0.58194    1.000
    N562     N        0.07065    0.74227    0.53686    1.000
    Si563    Si       0.09584    0.70784    0.54063    1.000
    N564     N        0.07798    0.68277    0.50752    1.000
    Si565    Si       0.09620    0.64365    0.50926    1.000
    Si566    Si       0.05664    0.71015    0.61324    1.000
    N567     N        0.05909    0.60638    0.65264    1.000
    Si568    Si       0.08862    0.58104    0.67312    1.000
    N569     N        0.07223    0.54135    0.67495    1.000
    Si570    Si       0.05944    0.51547    0.71104    1.000
    N571     N        0.09291    0.59947    0.71308    1.000
    Si572    Si       0.06311    0.58848    0.74200    1.000
    N573     N        0.05207    0.54841    0.73819    1.000
    Si574    Si       0.06810    0.51064    0.64617    1.000
    N575     N        0.06824    0.73206    0.64948    1.000
    Si576    Si       0.07324    0.64726    0.65126    1.000
    N577     N        0.08334    0.72425    0.72751    1.000
    Si578    Si       0.05760    0.72526    0.69187    1.000
    N579     N        0.10287    0.65901    0.68324    1.000
    Si580    Si       0.10746    0.64171    0.72093    1.000
    N581     N        0.08914    0.55016    0.81865    1.000
    N582     N        0.07548    0.59820    0.78247    1.000
    Si583    Si       0.05383    0.57749    0.81755    1.000
    N584     N        0.05484    0.60682    0.84996    1.000
    Si585    Si       0.07565    0.63995    0.79034    1.000
    Si586    Si       0.07270    0.70019    0.76353    1.000
    N587     N        0.09292    0.71523    0.79872    1.000
    N588     N        0.07672    0.69136    0.86677    1.000
    Si589    Si       0.05644    0.65392    0.85130    1.000
    N590     N        0.08365    0.65834    0.75299    1.000
    N591     N        0.10131    0.64930    0.82548    1.000
    Si592    Si       0.10170    0.75682    0.78698    1.000
    N593     N        0.06006    0.62131    0.97526    1.000
    N594     N        0.07508    0.55824    0.90306    1.000
    N595     N        0.09393    0.55520    0.97096    1.000
    Si596    Si       0.05696    0.59529    0.89198    1.000
    Si597    Si       0.06972    0.51699    0.88768    1.000
    N598     N        0.08020    0.62997    0.90742    1.000
    Si599    Si       0.08257    0.51891    0.99281    1.000
    Si600    Si       0.08114    0.58962    0.99674    1.000
    Si601    Si       0.07671    0.71482    0.90301    1.000
    Si602    Si       0.06486    0.65111    0.94286    1.000
    N603     N        0.06613    0.69446    0.93960    1.000
    Si604    Si       0.10430    0.69166    0.83358    1.000
    Si605    Si       0.07402    0.79816    0.08320    1.000
    N606     N        0.08554    0.77654    0.00709    1.000
    N607     N        0.09878    0.87583    0.10425    1.000
    N608     N        0.08959    0.85638    0.00215    1.000
    Si609    Si       0.10505    0.81547    0.01524    1.000
    N610     N        0.10395    0.81852    0.05846    1.000
    N611     N        0.07068    0.81589    0.12333    1.000
    N612     N        0.09785    0.76086    0.08761    1.000
    Si613    Si       0.09713    0.88755    0.02999    1.000
    N614     N        0.06332    0.89825    0.05430    1.000
    Si615    Si       0.07761    0.95386    0.01649    1.000
    Si616    Si       0.06875    0.90561    0.09703    1.000
    N617     N        0.08403    0.94133    0.11607    1.000
    N618     N        0.10185    0.98785    0.03385    1.000
    N619     N        0.06461    0.00402    0.09896    1.000
    Si620    Si       0.10290    0.00353    0.07511    1.000
    Si621    Si       0.04996    0.96753    0.11953    1.000
    N622     N        0.05652    0.77292    0.19029    1.000
    Si623    Si       0.07878    0.85685    0.13895    1.000
    N624     N        0.07291    0.83830    0.24101    1.000
    N625     N        0.05805    0.84002    0.17948    1.000
    N626     N        0.10055    0.77904    0.23377    1.000
    Si627    Si       0.09414    0.85701    0.20384    1.000
    Si628    Si       0.05548    0.79624    0.22926    1.000
    Si629    Si       0.11026    0.97501    0.19763    1.000
    N630     N        0.10130    0.89840    0.21804    1.000
    N631     N        0.06798    0.95772    0.19940    1.000
    Si632    Si       0.06435    0.92109    0.22214    1.000
    N633     N        0.10273    0.00474    0.16760    1.000
    Si634    Si       0.09399    0.79202    0.34358    1.000
    N635     N        0.10169    0.87439    0.30154    1.000
    N636     N        0.10102    0.80343    0.30054    1.000
    Si637    Si       0.10106    0.83966    0.27387    1.000
    Si638    Si       0.08658    0.76635    0.28464    1.000
    Si639    Si       0.07453    0.89253    0.33007    1.000
    N640     N        0.07019    0.93458    0.31631    1.000
    N641     N        0.09335    0.99924    0.30618    1.000
    N642     N        0.05773    0.98573    0.36531    1.000
    Si643    Si       0.05486    0.00438    0.32571    1.000
    Si644    Si       0.10457    0.96102    0.32342    1.000
    N645     N        0.09386    0.90461    0.36786    1.000
    N646     N        0.06748    0.80751    0.37359    1.000
    Si647    Si       0.06986    0.78427    0.41082    1.000
    N648     N        0.06252    0.86534    0.41093    1.000
    Si649    Si       0.09691    0.84977    0.43116    1.000
    N650     N        0.09763    0.80645    0.43693    1.000
    N651     N        0.09984    0.87204    0.46873    1.000
    Si652    Si       0.06448    0.96767    0.44246    1.000
    N653     N        0.07620    0.92696    0.43808    1.000
    N654     N        0.05899    0.97189    0.48426    1.000
    Si655    Si       0.06421    0.90682    0.40092    1.000
    Si656    Si       0.08213    0.91050    0.47736    1.000
    Si657    Si       0.09489    0.99883    0.38359    1.000
    N658     N        0.09392    0.99463    0.42820    1.000
    N659     N        0.07549    0.81485    0.57856    1.000
    Si660    Si       0.07162    0.83412    0.53899    1.000
    Si661    Si       0.09572    0.77138    0.51484    1.000
    N662     N        0.10325    0.86544    0.53598    1.000
    N663     N        0.07497    0.80843    0.50443    1.000
    Si664    Si       0.09138    0.93779    0.60450    1.000
    N665     N        0.06575    0.92069    0.57074    1.000
    N666     N        0.07611    0.99641    0.54688    1.000
    Si667    Si       0.10070    0.90713    0.55005    1.000
    N668     N        0.10567    0.97855    0.60804    1.000
    Si669    Si       0.07323    0.00907    0.50495    1.000
    Si670    Si       0.09332    0.76895    0.72603    1.000
    N671     N        0.05497    0.79773    0.64622    1.000
    N672     N        0.08309    0.86349    0.67486    1.000
    Si673    Si       0.08731    0.76990    0.65109    1.000
    N674     N        0.09041    0.81359    0.72665    1.000
    Si675    Si       0.06619    0.92497    0.73908    1.000
    Si676    Si       0.06695    0.00103    0.68671    1.000
    N677     N        0.10303    0.91927    0.70902    1.000
    N678     N        0.08172    0.92568    0.64351    1.000
    Si679    Si       0.10619    0.90044    0.66798    1.000
    N680     N        0.07924    0.83500    0.80230    1.000
    Si681    Si       0.06812    0.81791    0.76385    1.000
    N682     N        0.06509    0.77457    0.76829    1.000
    Si683    Si       0.10015    0.81987    0.83690    1.000
    Si684    Si       0.07167    0.87895    0.80232    1.000
    N685     N        0.08418    0.89160    0.76171    1.000
    N686     N        0.07779    0.96825    0.85479    1.000
    Si687    Si       0.09441    0.99628    0.82804    1.000
    N688     N        0.09846    0.89883    0.82764    1.000
    Si689    Si       0.07789    0.00635    0.75890    1.000
    N690     N        0.06204    0.00633    0.79925    1.000
    N691     N        0.08574    0.96310    0.74890    1.000
    N692     N        0.07443    0.81469    0.87287    1.000
    N693     N        0.08811    0.79188    0.94108    1.000
    Si694    Si       0.05849    0.78263    0.97133    1.000
    Si695    Si       0.08329    0.82951    0.91474    1.000
    Si696    Si       0.05216    0.85558    0.97892    1.000
    Si697    Si       0.05913    0.97718    0.93647    1.000
    N698     N        0.10769    0.90351    0.89249    1.000
    Si699    Si       0.08784    0.94194    0.88651    1.000
    N700     N        0.07919    0.97735    0.97454    1.000
    N701     N        0.05016    0.85426    0.93592    1.000
    Si702    Si       0.13006    0.05860    0.03103    1.000
    N703     N        0.12612    0.10281    0.03425    1.000
    Si704    Si       0.14889    0.12016    0.06764    1.000
    N705     N        0.11246    0.11698    0.09622    1.000
    Si706    Si       0.11042    0.12476    0.99823    1.000
    N707     N        0.10824    0.04609    0.06583    1.000
    N708     N        0.12440    0.16618    0.00346    1.000
    Si709    Si       0.12434    0.20458    0.10462    1.000
    N710     N        0.12209    0.23527    0.02421    1.000
    Si711    Si       0.15731    0.25087    0.99984    1.000
    N712     N        0.16472    0.15135    0.09551    1.000
    N713     N        0.15457    0.11647    0.15984    1.000
    Si714    Si       0.12781    0.02351    0.13837    1.000
    N715     N        0.13833    0.07701    0.20511    1.000
    Si716    Si       0.13517    0.04170    0.23132    1.000
    Si717    Si       0.11406    0.08754    0.16947    1.000
    N718     N        0.11299    0.06234    0.13289    1.000
    Si719    Si       0.13831    0.14130    0.12844    1.000
    N720     N        0.15871    0.18873    0.19622    1.000
    N721     N        0.12068    0.17867    0.14074    1.000
    Si722    Si       0.11427    0.19372    0.18415    1.000
    Si723    Si       0.14866    0.16848    0.23563    1.000
    N724     N        0.10633    0.23604    0.18307    1.000
    N725     N        0.13093    0.05666    0.33305    1.000
    Si726    Si       0.12478    0.02984    0.29916    1.000
    N727     N        0.12032    0.06126    0.26707    1.000
    N728     N        0.16314    0.09883    0.37099    1.000
    N729     N        0.12577    0.13698    0.25438    1.000
    Si730    Si       0.15327    0.13555    0.35016    1.000
    Si731    Si       0.12026    0.18777    0.35942    1.000
    N732     N        0.11943    0.23155    0.35210    1.000
    N733     N        0.11408    0.14951    0.33345    1.000
    N734     N        0.13173    0.25394    0.25055    1.000
    N735     N        0.16724    0.15710    0.49438    1.000
    N736     N        0.15296    0.12265    0.43634    1.000
    N737     N        0.15075    0.05047    0.42851    1.000
    N738     N        0.11647    0.11397    0.49374    1.000
    Si739    Si       0.16629    0.08865    0.41309    1.000
    N740     N        0.10899    0.17921    0.44950    1.000
    Si741    Si       0.11537    0.13304    0.45430    1.000
    Si742    Si       0.11019    0.03668    0.43273    1.000
    Si743    Si       0.13848    0.21059    0.45250    1.000
    N744     N        0.15592    0.17246    0.37456    1.000
    N745     N        0.13235    0.24435    0.42703    1.000
    N746     N        0.13644    0.21972    0.49540    1.000
    N747     N        0.14557    0.07259    0.53199    1.000
    Si748    Si       0.15682    0.11694    0.51427    1.000
    Si749    Si       0.10844    0.07045    0.55900    1.000
    N750     N        0.11223    0.03885    0.58840    1.000
    N751     N        0.10303    0.10958    0.57465    1.000
    Si752    Si       0.15580    0.19052    0.52047    1.000
    Si753    Si       0.13069    0.14648    0.57253    1.000
    N754     N        0.13421    0.23943    0.58094    1.000
    N755     N        0.12319    0.18132    0.54841    1.000
    N756     N        0.11940    0.15445    0.61391    1.000
    Si757    Si       0.15834    0.23821    0.61903    1.000
    Si758    Si       0.13687    0.02433    0.69462    1.000
    N759     N        0.14872    0.02303    0.65261    1.000
    N760     N        0.12600    0.06750    0.69490    1.000
    Si761    Si       0.13539    0.09929    0.66689    1.000
    Si762    Si       0.11039    0.01728    0.62828    1.000
    N763     N        0.15733    0.22367    0.71572    1.000
    N764     N        0.15626    0.16332    0.74291    1.000
    N765     N        0.14030    0.14084    0.67815    1.000
    Si766    Si       0.12539    0.17506    0.65371    1.000
    N767     N        0.15342    0.20725    0.64893    1.000
    Si768    Si       0.12851    0.19761    0.74113    1.000
    N769     N        0.11604    0.02272    0.49425    1.000
    Si770    Si       0.14006    0.05070    0.83337    1.000
    Si771    Si       0.12717    0.10480    0.78401    1.000
    Si772    Si       0.14908    0.04069    0.75804    1.000
    Si773    Si       0.14700    0.12064    0.84881    1.000
    N774     N        0.15647    0.02602    0.79969    1.000
    N775     N        0.11571    0.02252    0.85652    1.000
    N776     N        0.15877    0.08400    0.76211    1.000
    N777     N        0.11333    0.07977    0.81550    1.000
    N778     N        0.11849    0.18286    0.89034    1.000
    N779     N        0.14627    0.13676    0.80802    1.000
    N780     N        0.12216    0.21594    0.78052    1.000
    N781     N        0.15710    0.22252    0.84195    1.000
    Si782    Si       0.15887    0.22603    0.79941    1.000
    Si783    Si       0.12135    0.22187    0.86923    1.000
    N784     N        0.12944    0.10177    0.96816    1.000
    N785     N        0.12915    0.03673    0.92841    1.000
    Si786    Si       0.11012    0.06333    0.95659    1.000
    N787     N        0.10851    0.04396    0.99556    1.000
    Si788    Si       0.15849    0.17134    0.90773    1.000
    Si789    Si       0.16352    0.17393    0.98804    1.000
    N790     N        0.16731    0.15615    0.94897    1.000
    N791     N        0.10654    0.03868    0.75030    1.000
    Si792    Si       0.10945    0.01096    0.89782    1.000
    N793     N        0.11703    0.29783    0.06387    1.000
    Si794    Si       0.12654    0.37379    0.11526    1.000
    N795     N        0.12427    0.35281    0.02464    1.000
    Si796    Si       0.14834    0.31807    0.03801    1.000
    N797     N        0.13242    0.39484    0.07672    1.000
    N798     N        0.14328    0.45503    0.10683    1.000
    Si799    Si       0.12328    0.43981    0.06906    1.000
    N800     N        0.15329    0.45903    0.04183    1.000
    N801     N        0.11462    0.42084    0.00678    1.000
    N802     N        0.15332    0.50389    0.00158    1.000
    Si803    Si       0.13832    0.46210    0.00024    1.000
    N804     N        0.10897    0.29477    0.14113    1.000
    N805     N        0.15736    0.34330    0.12617    1.000
    Si806    Si       0.14773    0.31298    0.15525    1.000
    N807     N        0.14245    0.32793    0.19597    1.000
    N808     N        0.12727    0.37686    0.24186    1.000
    Si809    Si       0.10919    0.34525    0.21796    1.000
    N810     N        0.12650    0.47816    0.16729    1.000
    Si811    Si       0.16459    0.39863    0.23563    1.000
    Si812    Si       0.12761    0.43527    0.17448    1.000
    Si813    Si       0.12848    0.49167    0.12539    1.000
    N814     N        0.11909    0.39980    0.14919    1.000
    N815     N        0.16347    0.49875    0.23429    1.000
    N816     N        0.15885    0.42835    0.20420    1.000
    Si817    Si       0.13480    0.38402    0.99526    1.000
    N818     N        0.13280    0.35346    0.34435    1.000
    Si819    Si       0.12719    0.29207    0.26911    1.000
    Si820    Si       0.13856    0.26704    0.33681    1.000
    N821     N        0.11520    0.29201    0.31145    1.000
    N822     N        0.15827    0.31931    0.26578    1.000
    Si823    Si       0.16348    0.33229    0.36750    1.000
    N824     N        0.13694    0.48307    0.29325    1.000
    Si825    Si       0.12572    0.39764    0.34615    1.000
    N826     N        0.13218    0.40998    0.30396    1.000
    Si827    Si       0.12150    0.49607    0.33321    1.000
    Si828    Si       0.15811    0.44440    0.29773    1.000
    Si829    Si       0.12502    0.50484    0.25810    1.000
    N830     N        0.11543    0.45580    0.35192    1.000
    N831     N        0.15454    0.50199    0.36123    1.000
    Si832    Si       0.15799    0.45561    0.36957    1.000
    N833     N        0.15152    0.28973    0.37232    1.000
    Si834    Si       0.15544    0.32280    0.44130    1.000
    N835     N        0.15337    0.33462    0.48606    1.000
    N836     N        0.11373    0.31232    0.43238    1.000
    Si837    Si       0.16376    0.26270    0.40239    1.000
    Si838    Si       0.10721    0.46412    0.42424    1.000
    N839     N        0.15327    0.41251    0.45052    1.000
    N840     N        0.14952    0.46535    0.41300    1.000
    Si841    Si       0.15961    0.45455    0.46266    1.000
    N842     N        0.11243    0.45659    0.46858    1.000
    N843     N        0.15446    0.41163    0.37804    1.000
    Si844    Si       0.11462    0.41068    0.47291    1.000
    Si845    Si       0.10581    0.38455    0.28013    1.000
    Si846    Si       0.14579    0.27345    0.55507    1.000
    N847     N        0.11943    0.28204    0.52056    1.000
    Si848    Si       0.11826    0.32376    0.51041    1.000
    N849     N        0.15809    0.30660    0.58141    1.000
    N850     N        0.16074    0.37779    0.56481    1.000
    Si851    Si       0.11859    0.37981    0.55228    1.000
    N852     N        0.12725    0.40085    0.51433    1.000
    Si853    Si       0.15368    0.49340    0.52387    1.000
    N854     N        0.11945    0.49073    0.55048    1.000
    N855     N        0.15494    0.41105    0.62232    1.000
    N856     N        0.16641    0.45650    0.50604    1.000
    Si857    Si       0.14289    0.31051    0.62304    1.000
    N858     N        0.16017    0.27553    0.64289    1.000
    N859     N        0.16365    0.34435    0.63634    1.000
    N860     N        0.12743    0.31621    0.73912    1.000
    Si861    Si       0.14076    0.37818    0.64564    1.000
    Si862    Si       0.15225    0.45847    0.70955    1.000
    N863     N        0.11783    0.43399    0.72059    1.000
    N864     N        0.16138    0.49341    0.73216    1.000
    Si865    Si       0.14748    0.45417    0.62580    1.000
    N866     N        0.14450    0.38383    0.68764    1.000
    N867     N        0.14670    0.46510    0.66730    1.000
    N868     N        0.10711    0.45505    0.61041    1.000
    N869     N        0.12778    0.32294    0.85763    1.000
    Si870    Si       0.14011    0.29451    0.77627    1.000
    Si871    Si       0.15389    0.34901    0.83276    1.000
    N872     N        0.15735    0.33056    0.79255    1.000
    Si873    Si       0.15222    0.34879    0.75242    1.000
    N874     N        0.12631    0.38239    0.76510    1.000
    N875     N        0.12682    0.38305    0.83246    1.000
    N876     N        0.14291    0.45165    0.84488    1.000
    Si877    Si       0.12186    0.42531    0.76332    1.000
    N878     N        0.12801    0.49793    0.79284    1.000
    Si879    Si       0.12999    0.41441    0.86237    1.000
    N880     N        0.15838    0.44092    0.77919    1.000
    Si881    Si       0.15978    0.47126    0.80915    1.000
    Si882    Si       0.15644    0.36421    0.92499    1.000
    Si883    Si       0.13517    0.30030    0.89520    1.000
    N884     N        0.12401    0.37331    0.95453    1.000
    N885     N        0.12559    0.25807    0.89234    1.000
    N886     N        0.14365    0.25933    0.95875    1.000
    N887     N        0.13384    0.46507    0.91332    1.000
    Si888    Si       0.13696    0.48382    0.87381    1.000
    N889     N        0.15853    0.39386    0.89140    1.000
    N890     N        0.10914    0.28308    0.80355    1.000
    N891     N        0.16663    0.44464    0.97168    1.000
    N892     N        0.12076    0.60674    0.00882    1.000
    Si893    Si       0.14992    0.63233    0.02989    1.000
    N894     N        0.15496    0.52559    0.12273    1.000
    Si895    Si       0.13001    0.67826    0.09020    1.000
    N896     N        0.14078    0.67056    0.04692    1.000
    N897     N        0.13495    0.73593    0.03525    1.000
    N898     N        0.15452    0.71595    0.09445    1.000
    Si899    Si       0.13893    0.75391    0.07430    1.000
    N900     N        0.14010    0.64407    0.11426    1.000
    Si901    Si       0.16306    0.70415    0.03023    1.000
    N902     N        0.12239    0.58992    0.15969    1.000
    Si903    Si       0.15312    0.56243    0.14503    1.000
    N904     N        0.11876    0.60215    0.22912    1.000
    Si905    Si       0.11696    0.63105    0.14905    1.000
    N906     N        0.11595    0.53740    0.20404    1.000
    Si907    Si       0.13386    0.64225    0.22625    1.000
    N908     N        0.14262    0.74289    0.20254    1.000
    N909     N        0.12643    0.60574    0.29506    1.000
    N910     N        0.14448    0.57111    0.35071    1.000
    Si911    Si       0.12672    0.57762    0.26334    1.000
    Si912    Si       0.15893    0.60351    0.32637    1.000
    N913     N        0.12975    0.65125    0.48318    1.000
    N914     N        0.15978    0.63663    0.35334    1.000
    N915     N        0.14826    0.68621    0.30393    1.000
    Si916    Si       0.14982    0.67850    0.34579    1.000
    Si917    Si       0.15841    0.72550    0.28693    1.000
    N918     N        0.11352    0.73190    0.28012    1.000
    N919     N        0.11280    0.68579    0.36729    1.000
    Si920    Si       0.13305    0.66266    0.43934    1.000
    Si921    Si       0.13171    0.72728    0.45654    1.000
    N922     N        0.12536    0.62469    0.41648    1.000
    Si923    Si       0.13989    0.56532    0.48314    1.000
    N924     N        0.14080    0.52182    0.49141    1.000
    Si925    Si       0.16319    0.62371    0.39582    1.000
    N926     N        0.13965    0.74050    0.41418    1.000
    Si927    Si       0.13796    0.60354    0.55801    1.000
    N928     N        0.15067    0.58796    0.51943    1.000
    N929     N        0.15315    0.53707    0.60294    1.000
    Si930    Si       0.11447    0.55467    0.60779    1.000
    N931     N        0.14043    0.71022    0.53568    1.000
    N932     N        0.11775    0.64230    0.54884    1.000
    Si933    Si       0.15688    0.67832    0.50719    1.000
    Si934    Si       0.15813    0.74833    0.54697    1.000
    N935     N        0.10572    0.64993    0.62115    1.000
    Si936    Si       0.15807    0.60611    0.63556    1.000
    N937     N        0.12249    0.58155    0.64244    1.000
    N938     N        0.14390    0.62990    0.73924    1.000
    Si939    Si       0.16024    0.58590    0.73951    1.000
    Si940    Si       0.15007    0.74582    0.62424    1.000
    N941     N        0.14357    0.71069    0.64940    1.000
    Si942    Si       0.14365    0.73892    0.68431    1.000
    Si943    Si       0.13281    0.66840    0.65104    1.000
    N944     N        0.13235    0.55664    0.76027    1.000
    N945     N        0.14275    0.59338    0.81868    1.000
    Si946    Si       0.11211    0.57600    0.79267    1.000
    Si947    Si       0.12834    0.51421    0.75274    1.000
    Si948    Si       0.13739    0.63133    0.83758    1.000
    N949     N        0.14369    0.70200    0.84943    1.000
    N950     N        0.16806    0.73516    0.79821    1.000
    N951     N        0.11322    0.73913    0.90022    1.000
    N952     N        0.13332    0.59542    0.93652    1.000
    N953     N        0.14015    0.53756    0.90523    1.000
    Si954    Si       0.15026    0.59752    0.97710    1.000
    Si955    Si       0.11037    0.56022    0.92838    1.000
    Si956    Si       0.12439    0.63307    0.91419    1.000
    Si957    Si       0.15045    0.72546    0.88472    1.000
    N958     N        0.14768    0.63128    0.87896    1.000
    N959     N        0.12182    0.73511    0.96836    1.000
    N960     N        0.12664    0.66384    0.94477    1.000
    Si961    Si       0.14906    0.70081    0.95590    1.000
    N962     N        0.16749    0.65542    0.80931    1.000
    Si963    Si       0.12468    0.84944    0.07985    1.000
    N964     N        0.14923    0.83000    0.11157    1.000
    N965     N        0.13575    0.87589    0.04794    1.000
    N966     N        0.12923    0.99044    0.10713    1.000
    N967     N        0.16293    0.92905    0.11466    1.000
    N968     N        0.10804    0.92504    0.00958    1.000
    Si969    Si       0.14050    0.79461    0.23015    1.000
    Si970    Si       0.15290    0.83655    0.15576    1.000
    N971     N        0.14848    0.80508    0.18702    1.000
    N972     N        0.11520    0.85760    0.16666    1.000
    Si973    Si       0.14838    0.76524    0.16508    1.000
    Si974    Si       0.13727    0.91941    0.20728    1.000
    N975     N        0.12929    0.94401    0.17047    1.000
    Si976    Si       0.12829    0.95016    0.12545    1.000
    N977     N        0.13754    0.95401    0.23254    1.000
    N978     N        0.13346    0.78554    0.36330    1.000
    N979     N        0.15416    0.87725    0.34083    1.000
    N980     N        0.13785    0.83385    0.25117    1.000
    Si981    Si       0.13984    0.89625    0.30470    1.000
    N982     N        0.13914    0.93945    0.30885    1.000
    N983     N        0.15640    0.00221    0.28901    1.000
    N984     N        0.12357    0.97539    0.36081    1.000
    Si985    Si       0.16555    0.98344    0.24864    1.000
    Si986    Si       0.15980    0.77428    0.39642    1.000
    N987     N        0.13104    0.85956    0.40601    1.000
    Si988    Si       0.13284    0.79822    0.46138    1.000
    N989     N        0.16222    0.80491    0.42731    1.000
    N990     N        0.12198    0.76038    0.48075    1.000
    N991     N        0.14716    0.82318    0.49328    1.000
    N992     N        0.15952    0.92168    0.39229    1.000
    Si993    Si       0.16027    0.96199    0.37861    1.000
    Si994    Si       0.13394    0.89063    0.37692    1.000
    N995     N        0.15603    0.96723    0.48263    1.000
    N996     N        0.16063    0.88752    0.49348    1.000
    N997     N        0.14112    0.82959    0.58972    1.000
    N998     N        0.12487    0.77626    0.54765    1.000
    N999     N        0.11415    0.76805    0.61661    1.000
    Si1000   Si       0.11358    0.79637    0.58454    1.000
    Si1001   Si       0.12738    0.86179    0.50009    1.000
    N1002    N        0.15009    0.99062    0.55169    1.000
    N1003    N        0.12694    0.91873    0.58799    1.000
    Si1004   Si       0.16215    0.91620    0.61342    1.000
    Si1005   Si       0.15067    0.00244    0.50909    1.000
    Si1006   Si       0.11194    0.99834    0.57012    1.000
    Si1007   Si       0.15191    0.92944    0.50066    1.000
    N1008    N        0.10889    0.99089    0.69696    1.000
    N1009    N        0.10962    0.92520    0.51096    1.000
    N1010    N        0.13296    0.82057    0.66147    1.000
    N1011    N        0.14065    0.86236    0.71522    1.000
    Si1012   Si       0.11032    0.83463    0.69439    1.000
    N1013    N        0.11074    0.76473    0.68679    1.000
    N1014    N        0.14666    0.90789    0.65479    1.000
    N1015    N        0.16266    0.95066    0.70800    1.000
    Si1016   Si       0.12306    0.89059    0.74271    1.000
    Si1017   Si       0.12147    0.95741    0.71839    1.000
    N1018    N        0.13211    0.84605    0.84959    1.000
    N1019    N        0.11826    0.78197    0.82105    1.000
    Si1020   Si       0.15984    0.76819    0.82707    1.000
    N1021    N        0.12900    0.76465    0.75372    1.000
    Si1022   Si       0.13238    0.88841    0.85930    1.000
    N1023    N        0.14991    0.90449    0.77450    1.000
    N1024    N        0.12242    0.96958    0.80652    1.000
    N1025    N        0.15301    0.92318    0.84174    1.000
    Si1026   Si       0.12756    0.92686    0.80716    1.000
    Si1027   Si       0.16219    0.98498    0.80664    1.000
    Si1028   Si       0.12189    0.76397    0.93567    1.000
    Si1029   Si       0.15034    0.82543    0.95272    1.000
    N1030    N        0.11878    0.84875    0.93022    1.000
    N1031    N        0.15736    0.78890    0.92997    1.000
    N1032    N        0.14339    0.81552    0.99605    1.000
    Si1033   Si       0.13434    0.88985    0.92471    1.000
    N1034    N        0.11403    0.96885    0.90900    1.000
    Si1035   Si       0.15036    0.96225    0.93563    1.000
    N1036    N        0.14768    0.97985    0.97916    1.000
    Si1037   Si       0.14610    0.93549    0.99223    1.000
    N1038    N        0.14600    0.92153    0.95061    1.000
    Si1039   Si       0.11160    0.00118    0.99230    1.000
    Si1040   Si       0.19900    0.05613    0.05028    1.000
    N1041    N        0.18678    0.09950    0.05537    1.000
    Si1042   Si       0.21064    0.12178    0.02592    1.000
    N1043    N        0.21021    0.03077    0.08469    1.000
    N1044    N        0.16691    0.03600    0.02930    1.000
    N1045    N        0.19581    0.16259    0.01916    1.000
    Si1046   Si       0.19542    0.18388    0.10332    1.000
    Si1047   Si       0.21407    0.20379    0.01560    1.000
    Si1048   Si       0.18765    0.25391    0.11615    1.000
    N1049    N        0.21981    0.23873    0.04093    1.000
    N1050    N        0.16552    0.21769    0.10527    1.000
    Si1051   Si       0.20827    0.03761    0.21709    1.000
    Si1052   Si       0.17368    0.10178    0.19515    1.000
    Si1053   Si       0.20617    0.03484    0.12963    1.000
    N1054    N        0.20614    0.07410    0.19728    1.000
    N1055    N        0.17079    0.01773    0.22371    1.000
    N1056    N        0.16855    0.03198    0.14424    1.000
    N1057    N        0.18292    0.13521    0.22281    1.000
    N1058    N        0.21162    0.17959    0.14646    1.000
    N1059    N        0.21882    0.23338    0.17690    1.000
    Si1060   Si       0.19932    0.19208    0.18709    1.000
    N1061    N        0.20114    0.07283    0.31153    1.000
    Si1062   Si       0.21408    0.11383    0.30726    1.000
    N1063    N        0.19327    0.03203    0.36857    1.000
    Si1064   Si       0.17178    0.06504    0.34443    1.000
    N1065    N        0.17856    0.13672    0.31607    1.000
    Si1066   Si       0.20091    0.23482    0.33810    1.000
    Si1067   Si       0.19520    0.16892    0.29173    1.000
    N1068    N        0.21305    0.19426    0.32221    1.000
    N1069    N        0.20749    0.24131    0.26004    1.000
    N1070    N        0.16858    0.24953    0.31062    1.000
    Si1071   Si       0.16755    0.23501    0.26902    1.000
    N1072    N        0.20817    0.07599    0.41858    1.000
    Si1073   Si       0.18851    0.03154    0.41338    1.000
    N1074    N        0.18735    0.23266    0.38037    1.000
    N1075    N        0.16573    0.19026    0.26797    1.000
    Si1076   Si       0.18092    0.15235    0.45321    1.000
    N1077    N        0.17600    0.19308    0.43930    1.000
    Si1078   Si       0.18855    0.19111    0.39734    1.000
    N1079    N        0.22380    0.14514    0.44943    1.000
    Si1080   Si       0.18927    0.06205    0.52699    1.000
    N1081    N        0.19771    0.02614    0.60373    1.000
    N1082    N        0.18928    0.02412    0.50532    1.000
    N1083    N        0.22183    0.06096    0.55460    1.000
    N1084    N        0.19577    0.09965    0.50318    1.000
    N1085    N        0.16736    0.13452    0.55361    1.000
    Si1086   Si       0.20756    0.15241    0.54734    1.000
    Si1087   Si       0.20543    0.23392    0.56000    1.000
    N1088    N        0.20042    0.23448    0.60329    1.000
    N1089    N        0.19406    0.19408    0.54298    1.000
    N1090    N        0.16668    0.01556    0.72663    1.000
    Si1091   Si       0.18461    0.04472    0.64055    1.000
    N1092    N        0.19407    0.11129    0.71056    1.000
    Si1093   Si       0.20997    0.09421    0.67388    1.000
    N1094    N        0.17431    0.08975    0.64708    1.000
    N1095    N        0.21903    0.05185    0.66780    1.000
    N1096    N        0.22425    0.22880    0.74394    1.000
    Si1097   Si       0.17341    0.14767    0.70626    1.000
    N1098    N        0.19972    0.17317    0.68721    1.000
    N1099    N        0.21742    0.23685    0.67111    1.000
    Si1100   Si       0.18064    0.21041    0.67963    1.000
    Si1101   Si       0.18636    0.25133    0.73640    1.000
    Si1102   Si       0.19825    0.09611    0.75197    1.000
    N1103    N        0.20979    0.13164    0.77423    1.000
    N1104    N        0.18985    0.19657    0.79118    1.000
    Si1105   Si       0.17485    0.15808    0.78249    1.000
    N1106    N        0.20250    0.10466    0.98604    1.000
    N1107    N        0.19279    0.03601    0.96579    1.000
    N1108    N        0.20665    0.02816    0.89998    1.000
    Si1109   Si       0.18809    0.10026    0.88563    1.000
    Si1110   Si       0.17379    0.04216    0.92740    1.000
    N1111    N        0.17795    0.08570    0.92391    1.000
    Si1112   Si       0.17227    0.11280    0.95713    1.000
    Si1113   Si       0.22079    0.06603    0.98347    1.000
    N1114    N        0.16472    0.08027    0.85443    1.000
    Si1115   Si       0.18889    0.22875    0.87096    1.000
    Si1116   Si       0.17720    0.23439    0.94607    1.000
    N1117    N        0.17156    0.14048    0.87841    1.000
    N1118    N        0.18125    0.21499    0.98591    1.000
    N1119    N        0.17774    0.21087    0.90954    1.000
    N1120    N        0.22502    0.06293    0.76068    1.000
    Si1121   Si       0.17939    0.00899    0.99679    1.000
    N1122    N        0.19499    0.28748    0.08837    1.000
    Si1123   Si       0.20813    0.27948    0.04771    1.000
    Si1124   Si       0.18957    0.32892    0.09997    1.000
    N1125    N        0.17810    0.34463    0.05890    1.000
    N1126    N        0.17308    0.28456    0.02216    1.000
    Si1127   Si       0.17141    0.38703    0.05564    1.000
    N1128    N        0.17523    0.39461    0.01336    1.000
    N1129    N        0.19911    0.48331    0.07923    1.000
    N1130    N        0.19976    0.41456    0.07433    1.000
    Si1131   Si       0.18799    0.44729    0.10126    1.000
    Si1132   Si       0.18135    0.49374    0.04020    1.000
    N1133    N        0.20014    0.29547    0.21836    1.000
    N1134    N        0.19552    0.36837    0.22712    1.000
    N1135    N        0.17717    0.27987    0.15176    1.000
    Si1136   Si       0.20910    0.27505    0.18060    1.000
    Si1137   Si       0.17590    0.32986    0.22728    1.000
    Si1138   Si       0.17998    0.46109    0.22293    1.000
    N1139    N        0.20803    0.44661    0.13856    1.000
    N1140    N        0.21971    0.45944    0.20549    1.000
    N1141    N        0.20149    0.32764    0.34632    1.000
    Si1142   Si       0.17139    0.39509    0.41515    1.000
    N1143    N        0.18408    0.43524    0.26120    1.000
    N1144    N        0.18493    0.44751    0.33267    1.000
    N1145    N        0.18244    0.28952    0.43293    1.000
    N1146    N        0.21929    0.34515    0.46176    1.000
    Si1147   Si       0.22190    0.30282    0.44816    1.000
    Si1148   Si       0.19148    0.35119    0.49520    1.000
    N1149    N        0.21709    0.47722    0.39011    1.000
    N1150    N        0.19785    0.47562    0.45240    1.000
    Si1151   Si       0.18460    0.49483    0.41524    1.000
    N1152    N        0.21185    0.40364    0.42379    1.000
    N1153    N        0.16519    0.35057    0.40743    1.000
    N1154    N        0.20417    0.32771    0.53104    1.000
    Si1155   Si       0.18358    0.34019    0.56901    1.000
    N1156    N        0.21584    0.36073    0.59347    1.000
    Si1157   Si       0.21734    0.28665    0.52594    1.000
    N1158    N        0.18052    0.26153    0.53401    1.000
    N1159    N        0.19872    0.39198    0.50410    1.000
    N1160    N        0.19443    0.43201    0.55677    1.000
    Si1161   Si       0.19093    0.40293    0.58975    1.000
    N1162    N        0.18032    0.47600    0.61021    1.000
    Si1163   Si       0.21530    0.46743    0.54124    1.000
    Si1164   Si       0.16804    0.41681    0.52576    1.000
    N1165    N        0.22017    0.42274    0.61700    1.000
    Si1166   Si       0.22321    0.46506    0.61299    1.000
    N1167    N        0.19315    0.50552    0.54313    1.000
    N1168    N        0.19324    0.28488    0.70796    1.000
    N1169    N        0.21268    0.37529    0.66694    1.000
    Si1170   Si       0.20626    0.34618    0.63660    1.000
    N1171    N        0.22018    0.30497    0.63971    1.000
    Si1172   Si       0.19899    0.27812    0.66612    1.000
    N1173    N        0.18873    0.36174    0.73429    1.000
    Si1174   Si       0.18605    0.38819    0.69932    1.000
    N1175    N        0.18682    0.43021    0.71477    1.000
    N1176    N        0.21702    0.49104    0.69486    1.000
    Si1177   Si       0.22584    0.45153    0.70858    1.000
    N1178    N        0.19423    0.35534    0.84661    1.000
    Si1179   Si       0.22488    0.36175    0.75881    1.000
    N1180    N        0.16821    0.26307    0.77416    1.000
    N1181    N        0.20235    0.48766    0.80977    1.000
    Si1182   Si       0.19480    0.42650    0.75860    1.000
    N1183    N        0.21061    0.39619    0.78576    1.000
    N1184    N        0.21276    0.42320    0.85054    1.000
    N1185    N        0.17794    0.49565    0.87049    1.000
    Si1186   Si       0.20768    0.46216    0.87013    1.000
    N1187    N        0.20209    0.26968    0.87577    1.000
    Si1188   Si       0.20348    0.29226    0.91365    1.000
    N1189    N        0.19002    0.37402    0.95295    1.000
    N1190    N        0.16825    0.32246    0.91411    1.000
    Si1191   Si       0.22436    0.35595    0.93286    1.000
    N1192    N        0.20457    0.44944    0.91206    1.000
    N1193    N        0.18654    0.50951    0.94219    1.000
    Si1194   Si       0.19422    0.40964    0.97713    1.000
    Si1195   Si       0.19805    0.38947    0.87349    1.000
    Si1196   Si       0.17123    0.46762    0.93397    1.000
    N1197    N        0.21195    0.26130    0.94316    1.000
    Si1198   Si       0.19031    0.52244    0.09915    1.000
    Si1199   Si       0.18814    0.57540    0.03621    1.000
    Si1200   Si       0.17488    0.62146    0.09945    1.000
    N1201    N        0.17914    0.53659    0.05770    1.000
    N1202    N        0.17085    0.60812    0.05891    1.000
    N1203    N        0.21488    0.51072    0.00989    1.000
    Si1204   Si       0.19602    0.69931    0.09467    1.000
    N1205    N        0.20365    0.65454    0.09624    1.000
    N1206    N        0.20327    0.71344    0.05348    1.000
    Si1207   Si       0.20742    0.75788    0.05049    1.000
    N1208    N        0.18502    0.58917    0.12662    1.000
    Si1209   Si       0.17945    0.53917    0.21757    1.000
    N1210    N        0.18059    0.55600    0.17802    1.000
    Si1211   Si       0.21260    0.56483    0.14869    1.000
    N1212    N        0.22498    0.52924    0.21703    1.000
    Si1213   Si       0.19942    0.67355    0.23755    1.000
    N1214    N        0.17445    0.63796    0.24297    1.000
    Si1215   Si       0.21573    0.75143    0.15165    1.000
    N1216    N        0.21584    0.71193    0.13431    1.000
    N1217    N        0.20293    0.67848    0.19420    1.000
    Si1218   Si       0.18178    0.74417    0.22402    1.000
    N1219    N        0.21115    0.75297    0.19423    1.000
    N1220    N        0.19373    0.59355    0.30106    1.000
    N1221    N        0.21195    0.54084    0.34635    1.000
    Si1222   Si       0.18910    0.60081    0.25898    1.000
    Si1223   Si       0.17304    0.54184    0.36557    1.000
    Si1224   Si       0.19926    0.73911    0.34933    1.000
    N1225    N        0.18347    0.75176    0.30955    1.000
    N1226    N        0.17884    0.70512    0.36376    1.000
    N1227    N        0.18350    0.71085    0.25338    1.000
    N1228    N        0.17785    0.58139    0.46501    1.000
    Si1229   Si       0.20437    0.57233    0.43146    1.000
    N1230    N        0.18483    0.53760    0.40878    1.000
    N1231    N        0.20201    0.60371    0.40115    1.000
    Si1232   Si       0.20466    0.72177    0.46090    1.000
    N1233    N        0.16481    0.70758    0.47403    1.000
    N1234    N        0.17142    0.66176    0.41765    1.000
    Si1235   Si       0.19955    0.68333    0.39537    1.000
    N1236    N        0.22021    0.70994    0.42193    1.000
    N1237    N        0.16608    0.56563    0.25042    1.000
    Si1238   Si       0.20689    0.58362    0.60218    1.000
    Si1239   Si       0.21754    0.54668    0.54451    1.000
    N1240    N        0.22068    0.58602    0.52914    1.000
    Si1241   Si       0.18970    0.60452    0.50274    1.000
    N1242    N        0.21608    0.54304    0.58836    1.000
    Si1243   Si       0.18286    0.51323    0.58825    1.000
    N1244    N        0.16877    0.60457    0.59049    1.000
    N1245    N        0.17400    0.74748    0.58847    1.000
    N1246    N        0.18750    0.64617    0.51001    1.000
    Si1247   Si       0.21798    0.74986    0.59230    1.000
    N1248    N        0.18221    0.55754    0.71418    1.000
    Si1249   Si       0.20848    0.57646    0.68500    1.000
    N1250    N        0.19556    0.58331    0.64392    1.000
    Si1251   Si       0.19819    0.51675    0.72330    1.000
    N1252    N        0.21013    0.61770    0.70195    1.000
    Si1253   Si       0.20763    0.69758    0.72301    1.000
    Si1254   Si       0.20744    0.64615    0.67191    1.000
    N1255    N        0.17410    0.72648    0.71601    1.000
    N1256    N        0.21298    0.69189    0.67959    1.000
    Si1257   Si       0.20564    0.73717    0.67226    1.000
    N1258    N        0.16832    0.64473    0.65329    1.000
    N1259    N        0.18776    0.60128    0.77072    1.000
    Si1260   Si       0.18588    0.58968    0.81307    1.000
    N1261    N        0.20396    0.60748    0.84742    1.000
    N1262    N        0.21156    0.55436    0.81349    1.000
    Si1263   Si       0.21100    0.51706    0.84283    1.000
    Si1264   Si       0.17307    0.64185    0.76805    1.000
    Si1265   Si       0.17609    0.69709    0.81818    1.000
    N1266    N        0.20806    0.66411    0.75409    1.000
    N1267    N        0.21989    0.69963    0.81946    1.000
    Si1268   Si       0.16875    0.75093    0.75550    1.000
    Si1269   Si       0.20046    0.66378    0.98586    1.000
    N1270    N        0.21359    0.54528    0.88032    1.000
    Si1271   Si       0.18445    0.52521    0.98235    1.000
    Si1272   Si       0.18209    0.52764    0.90140    1.000
    N1273    N        0.17416    0.56604    0.99527    1.000
    N1274    N        0.21664    0.60746    0.90862    1.000
    Si1275   Si       0.19063    0.63095    0.88114    1.000
    N1276    N        0.17562    0.62965    0.99190    1.000
    N1277    N        0.21310    0.66383    0.94439    1.000
    N1278    N        0.17455    0.69699    0.98991    1.000
    N1279    N        0.17083    0.71096    0.91921    1.000
    N1280    N        0.21069    0.66905    0.87774    1.000
    Si1281   Si       0.20940    0.69421    0.91392    1.000
    N1282    N        0.19625    0.84692    0.02297    1.000
    N1283    N        0.20536    0.77889    0.01035    1.000
    Si1284   Si       0.17452    0.80738    0.02374    1.000
    Si1285   Si       0.18172    0.80151    0.10330    1.000
    N1286    N        0.21782    0.82877    0.09955    1.000
    N1287    N        0.17241    0.78365    0.06512    1.000
    Si1288   Si       0.22366    0.85150    0.05895    1.000
    Si1289   Si       0.17513    0.88660    0.03598    1.000
    N1290    N        0.20270    0.88746    0.07165    1.000
    N1291    N        0.18003    0.92401    0.01617    1.000
    Si1292   Si       0.20170    0.92200    0.09856    1.000
    Si1293   Si       0.21418    0.94871    0.03009    1.000
    N1294    N        0.21369    0.95512    0.07283    1.000
    N1295    N        0.21801    0.98879    0.00582    1.000
    Si1296   Si       0.22728    0.85971    0.13252    1.000
    N1297    N        0.21107    0.84395    0.23222    1.000
    N1298    N        0.19397    0.85250    0.16195    1.000
    N1299    N        0.18111    0.77197    0.13608    1.000
    Si1300   Si       0.20475    0.87193    0.19918    1.000
    N1301    N        0.17690    0.90408    0.21222    1.000
    Si1302   Si       0.18891    0.85165    0.33366    1.000
    N1303    N        0.18432    0.82591    0.29818    1.000
    Si1304   Si       0.19832    0.78578    0.28617    1.000
    Si1305   Si       0.17683    0.84849    0.26151    1.000
    N1306    N        0.19718    0.83473    0.37292    1.000
    N1307    N        0.22002    0.88227    0.32788    1.000
    N1308    N        0.17450    0.77620    0.25069    1.000
    N1309    N        0.19193    0.96098    0.34687    1.000
    N1310    N        0.19677    0.95712    0.26992    1.000
    Si1311   Si       0.21761    0.99744    0.35318    1.000
    Si1312   Si       0.21675    0.92415    0.34677    1.000
    Si1313   Si       0.19564    0.91647    0.25376    1.000
    Si1314   Si       0.17349    0.96641    0.30797    1.000
    N1315    N        0.17025    0.88909    0.27541    1.000
    N1316    N        0.20186    0.76549    0.38546    1.000
    Si1317   Si       0.19403    0.86355    0.47507    1.000
    N1318    N        0.21120    0.82303    0.48301    1.000
    N1319    N        0.19150    0.87062    0.43294    1.000
    Si1320   Si       0.17127    0.84188    0.40874    1.000
    N1321    N        0.17009    0.98842    0.41139    1.000
    N1322    N        0.22376    0.76105    0.45692    1.000
    Si1323   Si       0.18479    0.97628    0.45106    1.000
    N1324    N        0.19999    0.93688    0.44822    1.000
    Si1325   Si       0.19341    0.90933    0.41497    1.000
    N1326    N        0.21664    0.00878    0.44501    1.000
    N1327    N        0.19117    0.84739    0.54405    1.000
    Si1328   Si       0.18569    0.81327    0.51624    1.000
    Si1329   Si       0.18022    0.84348    0.58608    1.000
    N1330    N        0.19157    0.76915    0.52517    1.000
    N1331    N        0.18975    0.88408    0.60052    1.000
    N1332    N        0.19857    0.82130    0.62065    1.000
    Si1333   Si       0.19848    0.89134    0.53083    1.000
    N1334    N        0.18947    0.94917    0.60431    1.000
    Si1335   Si       0.18188    0.96363    0.56503    1.000
    N1336    N        0.18079    0.93271    0.53470    1.000
    N1337    N        0.22176    0.98488    0.55305    1.000
    Si1338   Si       0.18249    0.85278    0.71641    1.000
    N1339    N        0.19411    0.82292    0.68816    1.000
    N1340    N        0.17250    0.76311    0.65992    1.000
    Si1341   Si       0.17281    0.80881    0.65248    1.000
    Si1342   Si       0.22410    0.95128    0.63082    1.000
    Si1343   Si       0.18888    0.97851    0.73006    1.000
    N1344    N        0.20024    0.89105    0.71120    1.000
    N1345    N        0.21444    0.92429    0.66401    1.000
    Si1346   Si       0.17637    0.91737    0.68535    1.000
    Si1347   Si       0.22850    0.00139    0.50953    1.000
    Si1348   Si       0.20502    0.81313    0.78072    1.000
    N1349    N        0.19280    0.86693    0.82242    1.000
    N1350    N        0.18333    0.80270    0.81620    1.000
    N1351    N        0.18838    0.84713    0.75842    1.000
    Si1352   Si       0.17391    0.83478    0.84285    1.000
    N1353    N        0.20449    0.77703    0.75482    1.000
    N1354    N        0.17103    0.76121    0.86724    1.000
    Si1355   Si       0.18662    0.88355    0.78089    1.000
    N1356    N        0.21968    0.92187    0.85750    1.000
    N1357    N        0.18480    0.96937    0.77172    1.000
    N1358    N        0.18572    0.98120    0.84289    1.000
    N1359    N        0.22289    0.90748    0.78539    1.000
    Si1360   Si       0.18270    0.94263    0.86502    1.000
    N1361    N        0.18422    0.96159    0.90704    1.000
    Si1362   Si       0.21835    0.98700    0.90660    1.000
    N1363    N        0.18649    0.82711    0.88172    1.000
    Si1364   Si       0.18778    0.78630    0.89810    1.000
    Si1365   Si       0.21443    0.85538    0.98245    1.000
    Si1366   Si       0.19303    0.85927    0.90953    1.000
    N1367    N        0.18172    0.85509    0.95233    1.000
    N1368    N        0.16716    0.88829    0.89232    1.000
    Si1369   Si       0.27047    0.08192    0.04252    1.000
    N1370    N        0.25146    0.12248    0.04118    1.000
    N1371    N        0.23434    0.06167    0.02567    1.000
    N1372    N        0.24780    0.12919    0.11095    1.000
    Si1373   Si       0.26527    0.09048    0.11530    1.000
    Si1374   Si       0.25645    0.15078    0.07423    1.000
    Si1375   Si       0.24581    0.22604    0.07387    1.000
    N1376    N        0.22957    0.23648    0.11289    1.000
    N1377    N        0.22918    0.18448    0.07533    1.000
    Si1378   Si       0.24700    0.08263    0.17886    1.000
    Si1379   Si       0.26618    0.03500    0.23275    1.000
    N1380    N        0.27128    0.07357    0.21506    1.000
    N1381    N        0.23742    0.12681    0.18444    1.000
    N1382    N        0.23402    0.06661    0.13751    1.000
    N1383    N        0.24248    0.01752    0.19918    1.000
    N1384    N        0.28515    0.09640    0.15245    1.000
    Si1385   Si       0.23116    0.14102    0.22499    1.000
    N1386    N        0.22794    0.18526    0.21808    1.000
    Si1387   Si       0.24661    0.21581    0.14749    1.000
    Si1388   Si       0.24252    0.14967    0.14851    1.000
    Si1389   Si       0.24025    0.21939    0.24106    1.000
    N1390    N        0.27594    0.17943    0.14842    1.000
    N1391    N        0.27789    0.13540    0.23645    1.000
    N1392    N        0.26839    0.07039    0.30447    1.000
    Si1393   Si       0.23147    0.04765    0.29679    1.000
    N1394    N        0.23972    0.12610    0.34099    1.000
    Si1395   Si       0.27645    0.10563    0.32997    1.000
    N1396    N        0.22997    0.04073    0.25508    1.000
    Si1397   Si       0.23943    0.17006    0.34811    1.000
    Si1398   Si       0.27042    0.15743    0.27319    1.000
    N1399    N        0.26987    0.19916    0.26589    1.000
    Si1400   Si       0.27300    0.24426    0.34289    1.000
    N1401    N        0.27506    0.19681    0.34641    1.000
    N1402    N        0.22627    0.14380    0.27387    1.000
    N1403    N        0.26784    0.04455    0.41726    1.000
    N1404    N        0.27105    0.11868    0.41049    1.000
    N1405    N        0.25084    0.08924    0.47089    1.000
    Si1406   Si       0.25013    0.08401    0.42784    1.000
    Si1407   Si       0.25739    0.01786    0.45273    1.000
    Si1408   Si       0.22803    0.12235    0.48619    1.000
    N1409    N        0.26043    0.02661    0.49428    1.000
    Si1410   Si       0.25256    0.15803    0.42088    1.000
    N1411    N        0.22629    0.17365    0.38961    1.000
    Si1412   Si       0.26965    0.25948    0.49236    1.000
    N1413    N        0.26242    0.07570    0.60886    1.000
    Si1414   Si       0.24834    0.09303    0.57034    1.000
    N1415    N        0.26908    0.01181    0.59187    1.000
    Si1416   Si       0.27273    0.06907    0.50065    1.000
    N1417    N        0.27721    0.09407    0.53622    1.000
    Si1418   Si       0.22821    0.02250    0.57769    1.000
    N1419    N        0.23440    0.13477    0.57737    1.000
    Si1420   Si       0.27181    0.17681    0.51918    1.000
    Si1421   Si       0.26384    0.16103    0.59633    1.000
    N1422    N        0.23762    0.15243    0.51483    1.000
    N1423    N        0.27960    0.18478    0.56176    1.000
    N1424    N        0.27195    0.21562    0.49799    1.000
    Si1425   Si       0.27210    0.10612    0.63934    1.000
    N1426    N        0.24236    0.12224    0.66432    1.000
    Si1427   Si       0.24768    0.01896    0.67316    1.000
    N1428    N        0.25123    0.01377    0.71640    1.000
    Si1429   Si       0.25912    0.04823    0.73987    1.000
    N1430    N        0.26616    0.18951    0.70066    1.000
    Si1431   Si       0.23305    0.22700    0.62994    1.000
    N1432    N        0.26698    0.25465    0.62619    1.000
    N1433    N        0.24495    0.18361    0.63079    1.000
    Si1434   Si       0.24065    0.16580    0.67059    1.000
    Si1435   Si       0.24840    0.22978    0.70699    1.000
    N1436    N        0.27986    0.25779    0.71383    1.000
    Si1437   Si       0.24562    0.05973    0.79869    1.000
    N1438    N        0.26519    0.09928    0.79593    1.000
    N1439    N        0.27608    0.03281    0.77867    1.000
    N1440    N        0.22980    0.04046    0.83495    1.000
    Si1441   Si       0.27800    0.18828    0.95733    1.000
    Si1442   Si       0.24963    0.13947    0.78828    1.000
    N1443    N        0.25402    0.18006    0.80505    1.000
    Si1444   Si       0.25936    0.18880    0.84683    1.000
    N1445    N        0.23790    0.24969    0.80918    1.000
    N1446    N        0.26404    0.15346    0.86838    1.000
    N1447    N        0.22886    0.21464    0.85946    1.000
    Si1448   Si       0.23054    0.21309    0.78682    1.000
    N1449    N        0.27876    0.14219    0.75176    1.000
    Si1450   Si       0.23738    0.05326    0.87583    1.000
    N1451    N        0.27849    0.04242    0.87759    1.000
    N1452    N        0.23203    0.09292    0.89014    1.000
    N1453    N        0.25935    0.04951    0.96961    1.000
    Si1454   Si       0.25944    0.12478    0.90060    1.000
    N1455    N        0.24839    0.20738    0.98763    1.000
    Si1456   Si       0.24816    0.24530    0.96432    1.000
    N1457    N        0.27840    0.22959    0.93801    1.000
    N1458    N        0.27136    0.15180    0.93497    1.000
    Si1459   Si       0.24171    0.25831    0.85242    1.000
    Si1460   Si       0.25170    0.33844    0.07107    1.000
    N1461    N        0.24618    0.30266    0.04561    1.000
    N1462    N        0.25682    0.37324    0.04208    1.000
    N1463    N        0.22809    0.34723    0.10825    1.000
    Si1464   Si       0.28296    0.29607    0.01893    1.000
    Si1465   Si       0.26734    0.36787    0.99991    1.000
    N1466    N        0.26135    0.44456    0.04074    1.000
    Si1467   Si       0.24434    0.41321    0.06573    1.000
    N1468    N        0.26252    0.40785    0.10637    1.000
    Si1469   Si       0.27931    0.48068    0.05659    1.000
    N1470    N        0.28088    0.47823    0.10004    1.000
    N1471    N        0.26046    0.34176    0.22274    1.000
    Si1472   Si       0.24891    0.37399    0.13657    1.000
    N1473    N        0.24286    0.29621    0.16742    1.000
    Si1474   Si       0.23532    0.37830    0.21652    1.000
    Si1475   Si       0.28195    0.28058    0.16077    1.000
    N1476    N        0.25897    0.26232    0.23176    1.000
    Si1477   Si       0.24436    0.49091    0.22244    1.000
    N1478    N        0.23350    0.39206    0.17404    1.000
    Si1479   Si       0.23144    0.43419    0.17162    1.000
    N1480    N        0.27228    0.44726    0.16150    1.000
    N1481    N        0.25232    0.40601    0.24469    1.000
    N1482    N        0.28161    0.34731    0.15036    1.000
    N1483    N        0.26841    0.32921    0.35191    1.000
    Si1484   Si       0.27089    0.32939    0.26451    1.000
    N1485    N        0.23874    0.30581    0.28389    1.000
    Si1486   Si       0.23501    0.30775    0.32855    1.000
    N1487    N        0.23650    0.26477    0.33912    1.000
    N1488    N        0.27858    0.35939    0.29197    1.000
    Si1489   Si       0.27629    0.40247    0.28215    1.000
    N1490    N        0.24401    0.42480    0.30283    1.000
    N1491    N        0.24285    0.48132    0.26430    1.000
    N1492    N        0.24621    0.48419    0.33158    1.000
    Si1493   Si       0.26087    0.50288    0.29755    1.000
    Si1494   Si       0.23000    0.43993    0.26403    1.000
    Si1495   Si       0.22762    0.44437    0.33714    1.000
    Si1496   Si       0.27573    0.33559    0.39469    1.000
    N1497    N        0.25200    0.30140    0.41579    1.000
    N1498    N        0.27274    0.37413    0.41253    1.000
    Si1499   Si       0.24216    0.37888    0.44550    1.000
    N1500    N        0.23230    0.28010    0.48542    1.000
    Si1501   Si       0.22306    0.28125    0.25201    1.000
    N1502    N        0.24944    0.42343    0.37172    1.000
    Si1503   Si       0.23060    0.43880    0.40762    1.000
    N1504    N        0.26693    0.38732    0.48248    1.000
    N1505    N        0.26088    0.44855    0.44046    1.000
    Si1506   Si       0.23823    0.47178    0.46939    1.000
    Si1507   Si       0.23688    0.50907    0.36635    1.000
    N1508    N        0.27493    0.31365    0.59149    1.000
    Si1509   Si       0.27611    0.28216    0.56029    1.000
    N1510    N        0.23882    0.26163    0.55450    1.000
    Si1511   Si       0.25865    0.36741    0.58596    1.000
    N1512    N        0.23789    0.45059    0.50712    1.000
    N1513    N        0.25693    0.40110    0.55280    1.000
    N1514    N        0.24187    0.47490    0.57486    1.000
    Si1515   Si       0.24063    0.40707    0.51286    1.000
    Si1516   Si       0.26103    0.29954    0.62853    1.000
    N1517    N        0.26932    0.38020    0.62948    1.000
    N1518    N        0.25125    0.42986    0.68161    1.000
    N1519    N        0.25574    0.38527    0.73951    1.000
    Si1520   Si       0.24030    0.40311    0.64979    1.000
    N1521    N        0.24302    0.49987    0.63132    1.000
    Si1522   Si       0.25446    0.29075    0.79876    1.000
    N1523    N        0.24957    0.30492    0.83989    1.000
    N1524    N        0.25754    0.37494    0.83137    1.000
    N1525    N        0.23284    0.32888    0.78510    1.000
    Si1526   Si       0.22997    0.34254    0.82740    1.000
    Si1527   Si       0.26540    0.43963    0.99721    1.000
    Si1528   Si       0.23522    0.48984    0.77835    1.000
    Si1529   Si       0.23778    0.41068    0.81825    1.000
    N1530    N        0.24324    0.48759    0.86440    1.000
    N1531    N        0.27482    0.42494    0.79762    1.000
    N1532    N        0.23184    0.45284    0.75282    1.000
    Si1533   Si       0.26752    0.42653    0.75502    1.000
    N1534    N        0.27778    0.49195    0.78760    1.000
    Si1535   Si       0.27051    0.31105    0.87843    1.000
    N1536    N        0.27521    0.26605    0.87752    1.000
    Si1537   Si       0.26552    0.31122    0.94905    1.000
    N1538    N        0.24948    0.34710    0.96716    1.000
    N1539    N        0.26268    0.28258    0.98250    1.000
    N1540    N        0.23927    0.31752    0.91241    1.000
    Si1541   Si       0.23755    0.42482    0.92342    1.000
    Si1542   Si       0.27918    0.47513    0.88242    1.000
    N1543    N        0.27458    0.44171    0.90981    1.000
    N1544    N        0.23456    0.42521    0.96825    1.000
    N1545    N        0.22892    0.38706    0.90319    1.000
    Si1546   Si       0.24469    0.53942    0.02352    1.000
    N1547    N        0.26811    0.61340    0.09271    1.000
    Si1548   Si       0.24435    0.61757    0.01672    1.000
    N1549    N        0.26183    0.52124    0.05990    1.000
    Si1550   Si       0.26335    0.51904    0.10578    1.000
    N1551    N        0.23100    0.57848    0.03120    1.000
    N1552    N        0.22611    0.53452    0.12206    1.000
    Si1553   Si       0.27954    0.75721    0.04930    1.000
    Si1554   Si       0.24661    0.65020    0.10329    1.000
    N1555    N        0.25912    0.68319    0.08020    1.000
    N1556    N        0.26487    0.72448    0.02131    1.000
    Si1557   Si       0.24064    0.69428    0.04090    1.000
    N1558    N        0.23118    0.66052    0.01658    1.000
    Si1559   Si       0.27111    0.61951    0.16774    1.000
    Si1560   Si       0.24904    0.56623    0.21364    1.000
    N1561    N        0.24798    0.58158    0.16975    1.000
    N1562    N        0.27697    0.62945    0.20797    1.000
    N1563    N        0.22731    0.59625    0.23486    1.000
    N1564    N        0.26284    0.71470    0.18282    1.000
    N1565    N        0.25390    0.65174    0.14593    1.000
    Si1566   Si       0.23438    0.68664    0.16574    1.000
    Si1567   Si       0.25316    0.74831    0.21035    1.000
    Si1568   Si       0.25715    0.62500    0.24667    1.000
    N1569    N        0.25716    0.54679    0.29643    1.000
    N1570    N        0.24853    0.60277    0.34116    1.000
    Si1571   Si       0.27868    0.62717    0.31885    1.000
    N1572    N        0.27946    0.61022    0.27988    1.000
    Si1573   Si       0.22873    0.57241    0.31847    1.000
    N1574    N        0.23732    0.63742    0.46709    1.000
    N1575    N        0.25789    0.50863    0.47642    1.000
    N1576    N        0.23875    0.72217    0.34477    1.000
    Si1577   Si       0.25875    0.68457    0.35182    1.000
    Si1578   Si       0.26582    0.68984    0.27012    1.000
    N1579    N        0.27444    0.67305    0.31185    1.000
    N1580    N        0.23513    0.66053    0.25825    1.000
    Si1581   Si       0.26674    0.75303    0.35123    1.000
    N1582    N        0.25391    0.72578    0.24809    1.000
    N1583    N        0.24788    0.57293    0.44473    1.000
    N1584    N        0.26676    0.53372    0.38544    1.000
    Si1585   Si       0.27646    0.54265    0.45664    1.000
    Si1586   Si       0.23831    0.61730    0.38011    1.000
    Si1587   Si       0.26624    0.61391    0.44532    1.000
    N1588    N        0.27576    0.61727    0.40326    1.000
    N1589    N        0.23203    0.66083    0.37556    1.000
    N1590    N        0.22533    0.70716    0.49696    1.000
    Si1591   Si       0.23275    0.75197    0.41454    1.000
    N1592    N        0.27086    0.75169    0.39379    1.000
    Si1593   Si       0.24950    0.61637    0.54931    1.000
    N1594    N        0.24215    0.60821    0.59202    1.000
    N1595    N        0.25888    0.53285    0.54690    1.000
    Si1596   Si       0.25590    0.51871    0.59108    1.000
    Si1597   Si       0.27970    0.51793    0.51293    1.000
    Si1598   Si       0.26026    0.63756    0.61629    1.000
    Si1599   Si       0.25848    0.68867    0.56520    1.000
    N1600    N        0.24816    0.67683    0.60390    1.000
    N1601    N        0.24597    0.65764    0.53811    1.000
    N1602    N        0.23602    0.72552    0.56060    1.000
    Si1603   Si       0.22682    0.74342    0.52217    1.000
    Si1604   Si       0.22648    0.66277    0.49939    1.000
    Si1605   Si       0.27150    0.56855    0.71712    1.000
    N1606    N        0.24436    0.55291    0.68442    1.000
    Si1607   Si       0.23340    0.62835    0.73847    1.000
    Si1608   Si       0.23950    0.75986    0.73517    1.000
    Si1609   Si       0.24889    0.51080    0.67134    1.000
    N1610    N        0.28108    0.71786    0.65640    1.000
    Si1611   Si       0.24479    0.69322    0.64292    1.000
    Si1612   Si       0.28014    0.63787    0.68757    1.000
    N1613    N        0.26631    0.65297    0.72526    1.000
    Si1614   Si       0.26177    0.75724    0.65415    1.000
    N1615    N        0.22769    0.73725    0.63270    1.000
    N1616    N        0.24947    0.64670    0.65828    1.000
    N1617    N        0.27306    0.59175    0.86524    1.000
    Si1618   Si       0.23955    0.56114    0.77874    1.000
    N1619    N        0.27958    0.56250    0.79885    1.000
    N1620    N        0.22638    0.52594    0.75574    1.000
    N1621    N        0.28373    0.69554    0.85607    1.000
    N1622    N        0.27690    0.67850    0.78699    1.000
    Si1623   Si       0.23631    0.69125    0.78033    1.000
    Si1624   Si       0.24063    0.69465    0.86039    1.000
    N1625    N        0.23841    0.71732    0.74646    1.000
    Si1626   Si       0.22944    0.58358    0.87443    1.000
    N1627    N        0.25340    0.60740    0.97471    1.000
    Si1628   Si       0.23903    0.62852    0.93890    1.000
    N1629    N        0.27712    0.54033    0.99399    1.000
    Si1630   Si       0.25669    0.75255    0.91789    1.000
    N1631    N        0.26026    0.75687    0.96157    1.000
    N1632    N        0.27931    0.69318    0.96050    1.000
    N1633    N        0.23914    0.71970    0.89729    1.000
    N1634    N        0.27684    0.64003    0.91828    1.000
    Si1635   Si       0.28458    0.72852    0.98266    1.000
    N1636    N        0.25249    0.59030    0.74832    1.000
    Si1637   Si       0.25049    0.79488    0.10184    1.000
    N1638    N        0.26370    0.85614    0.04139    1.000
    N1639    N        0.24302    0.76670    0.07084    1.000
    N1640    N        0.28261    0.79050    0.02088    1.000
    N1641    N        0.27513    0.98640    0.08342    1.000
    Si1642   Si       0.26876    0.89044    0.01560    1.000
    N1643    N        0.25574    0.92961    0.03003    1.000
    Si1644   Si       0.23254    0.99100    0.09049    1.000
    Si1645   Si       0.28135    0.94995    0.05733    1.000
    Si1646   Si       0.24790    0.81859    0.23955    1.000
    N1647    N        0.25077    0.77675    0.14051    1.000
    N1648    N        0.26487    0.84239    0.14868    1.000
    N1649    N        0.26410    0.79333    0.20816    1.000
    Si1650   Si       0.27249    0.80416    0.16732    1.000
    N1651    N        0.25988    0.95195    0.18117    1.000
    N1652    N        0.22686    0.99660    0.13347    1.000
    Si1653   Si       0.25818    0.91303    0.16255    1.000
    N1654    N        0.24337    0.88809    0.19520    1.000
    Si1655   Si       0.26414    0.88708    0.23375    1.000
    N1656    N        0.23031    0.90479    0.13015    1.000
    Si1657   Si       0.25406    0.99164    0.16542    1.000
    N1658    N        0.24948    0.79414    0.34367    1.000
    N1659    N        0.23949    0.79543    0.27658    1.000
    Si1660   Si       0.27046    0.79472    0.30624    1.000
    N1661    N        0.27829    0.84899    0.24872    1.000
    Si1662   Si       0.25293    0.89770    0.30411    1.000
    N1663    N        0.24672    0.93997    0.31925    1.000
    Si1664   Si       0.27560    0.95901    0.34605    1.000
    N1665    N        0.23571    0.90126    0.26254    1.000
    Si1666   Si       0.23654    0.96939    0.28526    1.000
    N1667    N        0.26681    0.97033    0.25582    1.000
    N1668    N        0.25530    0.98752    0.37221    1.000
    N1669    N        0.22712    0.00611    0.31221    1.000
    Si1670   Si       0.24117    0.80097    0.45989    1.000
    N1671    N        0.24571    0.80669    0.41792    1.000
    N1672    N        0.27985    0.82412    0.46903    1.000
    Si1673   Si       0.28419    0.82751    0.42453    1.000
    N1674    N        0.26648    0.92196    0.44396    1.000
    Si1675   Si       0.26899    0.90701    0.40093    1.000
    N1676    N        0.22895    0.91451    0.38681    1.000
    Si1677   Si       0.23407    0.92620    0.47216    1.000
    N1678    N        0.24043    0.95963    0.49834    1.000
    Si1679   Si       0.22522    0.80423    0.37907    1.000
    N1680    N        0.22269    0.89054    0.49354    1.000
    N1681    N        0.25308    0.85519    0.60095    1.000
    N1682    N        0.24330    0.78546    0.58336    1.000
    Si1683   Si       0.24116    0.81561    0.61500    1.000
    Si1684   Si       0.27472    0.78659    0.55366    1.000
    N1685    N        0.26467    0.76518    0.51595    1.000
    N1686    N        0.28115    0.82937    0.54327    1.000
    N1687    N        0.25372    0.92590    0.61209    1.000
    Si1688   Si       0.24400    0.94613    0.54016    1.000
    N1689    N        0.23446    0.90474    0.55471    1.000
    Si1690   Si       0.23115    0.89303    0.59526    1.000
    N1691    N        0.22907    0.98705    0.65206    1.000
    N1692    N        0.28519    0.94895    0.55189    1.000
    N1693    N        0.23588    0.76231    0.69134    1.000
    Si1694   Si       0.23511    0.80752    0.68464    1.000
    N1695    N        0.25603    0.83687    0.70786    1.000
    N1696    N        0.26276    0.80173    0.65026    1.000
    N1697    N        0.27975    0.77825    0.73536    1.000
    N1698    N        0.23024    0.95150    0.73006    1.000
    Si1699   Si       0.27506    0.81942    0.74512    1.000
    N1700    N        0.27647    0.90653    0.70151    1.000
    Si1701   Si       0.26824    0.97295    0.72274    1.000
    Si1702   Si       0.23436    0.91613    0.70480    1.000
    N1703    N        0.25016    0.82093    0.78155    1.000
    N1704    N        0.26459    0.87082    0.82871    1.000
    Si1705   Si       0.27569    0.82940    0.81609    1.000
    N1706    N        0.27082    0.80685    0.85245    1.000
    Si1707   Si       0.25272    0.00352    0.97953    1.000
    Si1708   Si       0.22745    0.89338    0.82684    1.000
    N1709    N        0.24385    0.97659    0.80487    1.000
    N1710    N        0.24132    0.82339    0.97184    1.000
    Si1711   Si       0.25080    0.82196    0.92880    1.000
    N1712    N        0.23687    0.86219    0.91728    1.000
    N1713    N        0.22957    0.78749    0.91363    1.000
    Si1714   Si       0.24517    0.78519    0.99184    1.000
    N1715    N        0.24798    0.98069    0.87321    1.000
    N1716    N        0.25841    0.92733    0.91861    1.000
    N1717    N        0.24805    0.98792    0.94044    1.000
    Si1718   Si       0.26099    0.89090    0.94083    1.000
    Si1719   Si       0.25623    0.93764    0.87635    1.000
    Si1720   Si       0.28055    0.96115    0.93521    1.000
    N1721    N        0.24296    0.88751    0.97998    1.000
    Si1722   Si       0.22345    0.95053    0.77567    1.000
    Si1723   Si       0.22561    0.99533    0.83839    1.000
    N1724    N        0.30459    0.07576    0.01732    1.000
    Si1725   Si       0.33074    0.06779    0.09545    1.000
    N1726    N        0.34123    0.02675    0.09365    1.000
    N1727    N        0.28871    0.07557    0.08275    1.000
    Si1728   Si       0.34081    0.09519    0.02719    1.000
    N1729    N        0.33951    0.13877    0.01942    1.000
    N1730    N        0.29859    0.15964    0.07700    1.000
    Si1731   Si       0.32245    0.24118    0.05214    1.000
    Si1732   Si       0.33561    0.16367    0.05359    1.000
    Si1733   Si       0.31928    0.24833    0.11492    1.000
    N1734    N        0.28930    0.23148    0.07942    1.000
    Si1735   Si       0.30936    0.16558    0.11909    1.000
    Si1736   Si       0.32656    0.10101    0.16223    1.000
    Si1737   Si       0.30228    0.09950    0.23069    1.000
    N1738    N        0.33548    0.09401    0.20375    1.000
    Si1739   Si       0.31049    0.20290    0.16550    1.000
    N1740    N        0.34007    0.19551    0.19515    1.000
    N1741    N        0.33121    0.20288    0.12370    1.000
    N1742    N        0.33316    0.14404    0.14982    1.000
    N1743    N        0.32143    0.23965    0.24294    1.000
    N1744    N        0.34780    0.07677    0.13585    1.000
    N1745    N        0.28619    0.23790    0.16158    1.000
    Si1746   Si       0.30684    0.05859    0.28882    1.000
    N1747    N        0.31126    0.09657    0.35472    1.000
    N1748    N        0.29871    0.02741    0.26005    1.000
    N1749    N        0.32614    0.09189    0.26918    1.000
    N1750    N        0.33607    0.04369    0.31778    1.000
    Si1751   Si       0.30391    0.22313    0.27946    1.000
    Si1752   Si       0.30806    0.17256    0.33229    1.000
    N1753    N        0.33149    0.19854    0.30760    1.000
    N1754    N        0.29042    0.14148    0.30829    1.000
    N1755    N        0.29970    0.25569    0.30973    1.000
    N1756    N        0.31765    0.16102    0.37208    1.000
    Si1757   Si       0.31026    0.12154    0.39028    1.000
    N1758    N        0.31375    0.07974    0.48903    1.000
    N1759    N        0.32236    0.01359    0.37856    1.000
    N1760    N        0.33503    0.21352    0.47255    1.000
    Si1761   Si       0.29254    0.21232    0.45842    1.000
    Si1762   Si       0.30129    0.20198    0.38547    1.000
    N1763    N        0.28992    0.24450    0.38329    1.000
    N1764    N        0.28894    0.25588    0.45320    1.000
    N1765    N        0.28332    0.18686    0.42546    1.000
    Si1766   Si       0.28418    0.00917    0.39784    1.000
    Si1767   Si       0.31167    0.11392    0.51789    1.000
    N1768    N        0.32585    0.03209    0.60633    1.000
    Si1769   Si       0.28755    0.04179    0.61813    1.000
    Si1770   Si       0.31368    0.20774    0.57269    1.000
    N1771    N        0.30600    0.25147    0.57027    1.000
    N1772    N        0.30650    0.15493    0.50167    1.000
    Si1773   Si       0.31026    0.25367    0.61531    1.000
    N1774    N        0.29286    0.13445    0.61439    1.000
    N1775    N        0.31921    0.20902    0.61639    1.000
    Si1776   Si       0.32174    0.07476    0.69711    1.000
    Si1777   Si       0.33345    0.12347    0.63240    1.000
    N1778    N        0.31101    0.08907    0.65521    1.000
    N1779    N        0.28727    0.02579    0.65857    1.000
    Si1780   Si       0.29251    0.17887    0.73355    1.000
    N1781    N        0.28814    0.07553    0.72627    1.000
    N1782    N        0.33550    0.18233    0.72437    1.000
    N1783    N        0.34089    0.15185    0.66425    1.000
    Si1784   Si       0.34233    0.18352    0.50210    1.000
    N1785    N        0.33130    0.09597    0.78029    1.000
    Si1786   Si       0.29260    0.10237    0.76000    1.000
    N1787    N        0.33480    0.08816    0.84699    1.000
    Si1788   Si       0.30597    0.13618    0.86396    1.000
    N1789    N        0.29111    0.21029    0.76437    1.000
    N1790    N        0.31245    0.14696    0.82332    1.000
    Si1791   Si       0.30551    0.18840    0.80020    1.000
    N1792    N        0.30021    0.20761    0.83982    1.000
    Si1793   Si       0.29969    0.25018    0.75417    1.000
    Si1794   Si       0.33032    0.20553    0.87092    1.000
    Si1795   Si       0.31296    0.07077    0.88214    1.000
    N1796    N        0.33133    0.05264    0.94976    1.000
    N1797    N        0.30108    0.10839    0.89912    1.000
    Si1798   Si       0.30197    0.04614    0.98545    1.000
    N1799    N        0.32258    0.17986    0.95663    1.000
    Si1800   Si       0.30037    0.25759    0.91190    1.000
    N1801    N        0.32476    0.16628    0.89102    1.000
    N1802    N        0.33516    0.23542    0.90252    1.000
    Si1803   Si       0.31554    0.14285    0.92741    1.000
    Si1804   Si       0.34224    0.11585    0.81590    1.000
    N1805    N        0.34238    0.03876    0.88409    1.000
    N1806    N        0.29993    0.33637    0.01203    1.000
    N1807    N        0.31930    0.26996    0.01863    1.000
    Si1808   Si       0.30550    0.36580    0.04754    1.000
    N1809    N        0.29407    0.34101    0.08032    1.000
    Si1810   Si       0.30626    0.33132    0.11929    1.000
    N1811    N        0.29662    0.28863    0.12178    1.000
    N1812    N        0.31688    0.48873    0.03600    1.000
    N1813    N        0.33851    0.39211    0.05998    1.000
    Si1814   Si       0.28743    0.44091    0.12283    1.000
    N1815    N        0.32853    0.42422    0.12315    1.000
    Si1816   Si       0.29019    0.33712    0.19278    1.000
    Si1817   Si       0.30046    0.27511    0.23062    1.000
    N1818    N        0.32440    0.36423    0.19469    1.000
    N1819    N        0.30905    0.29551    0.19203    1.000
    N1820    N        0.33260    0.44370    0.20817    1.000
    N1821    N        0.32869    0.48572    0.15192    1.000
    Si1822   Si       0.30434    0.46601    0.18256    1.000
    N1823    N        0.28655    0.49569    0.20657    1.000
    Si1824   Si       0.30029    0.34912    0.32954    1.000
    Si1825   Si       0.32767    0.28763    0.29610    1.000
    N1826    N        0.30585    0.30388    0.26224    1.000
    N1827    N        0.33188    0.31962    0.32332    1.000
    N1828    N        0.31259    0.38221    0.35471    1.000
    N1829    N        0.31454    0.42138    0.28884    1.000
    N1830    N        0.30303    0.49294    0.29703    1.000
    Si1831   Si       0.33051    0.46122    0.30155    1.000
    N1832    N        0.31068    0.30853    0.40514    1.000
    Si1833   Si       0.28537    0.27409    0.41498    1.000
    N1834    N        0.32858    0.50839    0.37026    1.000
    Si1835   Si       0.31069    0.38656    0.48947    1.000
    Si1836   Si       0.28790    0.40502    0.38359    1.000
    Si1837   Si       0.30403    0.44567    0.43687    1.000
    N1838    N        0.32568    0.41366    0.45870    1.000
    N1839    N        0.31346    0.44024    0.39552    1.000
    N1840    N        0.33596    0.47486    0.44799    1.000
    Si1841   Si       0.31603    0.33105    0.59563    1.000
    N1842    N        0.30561    0.36922    0.57483    1.000
    Si1843   Si       0.32967    0.30448    0.51643    1.000
    N1844    N        0.33007    0.34731    0.50131    1.000
    N1845    N        0.28888    0.28848    0.51795    1.000
    Si1846   Si       0.33839    0.36089    0.54416    1.000
    N1847    N        0.33305    0.29109    0.61709    1.000
    N1848    N        0.34128    0.31774    0.55887    1.000
    Si1849   Si       0.31719    0.48640    0.56949    1.000
    Si1850   Si       0.29914    0.41296    0.56001    1.000
    N1851    N        0.31574    0.44584    0.58406    1.000
    N1852    N        0.32649    0.40451    0.52719    1.000
    N1853    N        0.30599    0.48663    0.52694    1.000
    N1854    N        0.33220    0.35196    0.63082    1.000
    Si1855   Si       0.32991    0.31404    0.65242    1.000
    Si1856   Si       0.29293    0.29693    0.70286    1.000
    N1857    N        0.29049    0.32564    0.73461    1.000
    N1858    N        0.30768    0.37532    0.69066    1.000
    Si1859   Si       0.29265    0.36818    0.72886    1.000
    N1860    N        0.33770    0.29714    0.69092    1.000
    N1861    N        0.28689    0.30949    0.66042    1.000
    Si1862   Si       0.33677    0.45066    0.62397    1.000
    Si1863   Si       0.30905    0.38396    0.64923    1.000
    N1864    N        0.31564    0.42841    0.65427    1.000
    N1865    N        0.29925    0.44153    0.72910    1.000
    N1866    N        0.28637    0.49016    0.68170    1.000
    Si1867   Si       0.29123    0.44675    0.68593    1.000
    Si1868   Si       0.34012    0.44879    0.74630    1.000
    Si1869   Si       0.31132    0.32028    0.77451    1.000
    N1870    N        0.30651    0.33501    0.81459    1.000
    Si1871   Si       0.33107    0.35039    0.84827    1.000
    N1872    N        0.29313    0.28231    0.78053    1.000
    N1873    N        0.31497    0.37791    0.76602    1.000
    Si1874   Si       0.29481    0.37982    0.80751    1.000
    N1875    N        0.32506    0.39073    0.83685    1.000
    N1876    N        0.30916    0.47154    0.84874    1.000
    Si1877   Si       0.29952    0.46022    0.80840    1.000
    N1878    N        0.33741    0.44774    0.79058    1.000
    N1879    N        0.30534    0.33878    0.88070    1.000
    N1880    N        0.30482    0.29710    0.92983    1.000
    Si1881   Si       0.32772    0.33207    0.91683    1.000
    N1882    N        0.32366    0.35914    0.94865    1.000
    Si1883   Si       0.33706    0.34326    0.98982    1.000
    Si1884   Si       0.32725    0.39925    0.96852    1.000
    Si1885   Si       0.30031    0.46388    0.93970    1.000
    N1886    N        0.28509    0.47309    0.97901    1.000
    N1887    N        0.33401    0.43837    0.95020    1.000
    N1888    N        0.29098    0.40334    0.99249    1.000
    N1889    N        0.29704    0.49939    0.91466    1.000
    Si1890   Si       0.30616    0.50564    0.99710    1.000
    N1891    N        0.32448    0.59096    0.07846    1.000
    Si1892   Si       0.29738    0.58751    0.11224    1.000
    Si1893   Si       0.32109    0.63091    0.00124    1.000
    N1894    N        0.28652    0.62801    0.02879    1.000
    Si1895   Si       0.30320    0.62783    0.06873    1.000
    N1896    N        0.29549    0.54421    0.11998    1.000
    Si1897   Si       0.29682    0.70109    0.09333    1.000
    N1898    N        0.31098    0.73596    0.07253    1.000
    N1899    N        0.31809    0.66078    0.09412    1.000
    N1900    N        0.30987    0.60790    0.14940    1.000
    Si1901   Si       0.31089    0.53337    0.21289    1.000
    N1902    N        0.32983    0.55206    0.17938    1.000
    Si1903   Si       0.33193    0.52810    0.14245    1.000
    N1904    N        0.33935    0.51587    0.24153    1.000
    Si1905   Si       0.34312    0.59394    0.17427    1.000
    N1906    N        0.34101    0.61670    0.21228    1.000
    Si1907   Si       0.30632    0.71350    0.17725    1.000
    N1908    N        0.31257    0.70915    0.13311    1.000
    Si1909   Si       0.31355    0.64975    0.21580    1.000
    Si1910   Si       0.33228    0.66760    0.13610    1.000
    N1911    N        0.32503    0.73549    0.20782    1.000
    N1912    N        0.32350    0.67192    0.17982    1.000
    N1913    N        0.28503    0.55829    0.23660    1.000
    N1914    N        0.32879    0.56507    0.29456    1.000
    N1915    N        0.31682    0.62820    0.33827    1.000
    Si1916   Si       0.28890    0.56837    0.27930    1.000
    Si1917   Si       0.34299    0.60122    0.31261    1.000
    Si1918   Si       0.32410    0.67251    0.33739    1.000
    Si1919   Si       0.33733    0.70492    0.26184    1.000
    N1920    N        0.28996    0.75286    0.31554    1.000
    N1921    N        0.29903    0.68279    0.37148    1.000
    N1922    N        0.34203    0.68580    0.30086    1.000
    Si1923   Si       0.33283    0.68714    0.40042    1.000
    N1924    N        0.33299    0.57550    0.38092    1.000
    Si1925   Si       0.31633    0.61526    0.38449    1.000
    N1926    N        0.31103    0.53790    0.43250    1.000
    Si1927   Si       0.30844    0.53947    0.38941    1.000
    N1928    N        0.30343    0.61739    0.46904    1.000
    N1929    N        0.29290    0.55456    0.49588    1.000
    N1930    N        0.33606    0.73228    0.39769    1.000
    N1931    N        0.30502    0.74894    0.45615    1.000
    Si1932   Si       0.33091    0.71670    0.46827    1.000
    Si1933   Si       0.33312    0.64271    0.45200    1.000
    N1934    N        0.31753    0.68302    0.44330    1.000
    N1935    N        0.30311    0.67962    0.24701    1.000
    Si1936   Si       0.30959    0.59275    0.50521    1.000
    N1937    N        0.29296    0.61648    0.54016    1.000
    N1938    N        0.29914    0.51493    0.59811    1.000
    N1939    N        0.30347    0.63924    0.60904    1.000
    Si1940   Si       0.31355    0.64677    0.56687    1.000
    N1941    N        0.30101    0.68867    0.55830    1.000
    Si1942   Si       0.32566    0.72462    0.55474    1.000
    N1943    N        0.32769    0.72775    0.51080    1.000
    Si1944   Si       0.32749    0.52831    0.62886    1.000
    Si1945   Si       0.31694    0.51326    0.70229    1.000
    Si1946   Si       0.33052    0.58287    0.68026    1.000
    N1947    N        0.29515    0.53644    0.73212    1.000
    N1948    N        0.32654    0.54163    0.67071    1.000
    N1949    N        0.28903    0.59665    0.68886    1.000
    N1950    N        0.30776    0.70953    0.72210    1.000
    Si1951   Si       0.33507    0.64145    0.63847    1.000
    N1952    N        0.31776    0.65722    0.67564    1.000
    Si1953   Si       0.31441    0.70249    0.67938    1.000
    Si1954   Si       0.31296    0.75009    0.73829    1.000
    Si1955   Si       0.29766    0.67682    0.74875    1.000
    Si1956   Si       0.29862    0.58883    0.83033    1.000
    Si1957   Si       0.29798    0.52796    0.77744    1.000
    N1958    N        0.31011    0.62884    0.82043    1.000
    N1959    N        0.33660    0.57152    0.84280    1.000
    N1960    N        0.34165    0.52988    0.78320    1.000
    Si1961   Si       0.30050    0.67098    0.82287    1.000
    N1962    N        0.31453    0.74260    0.78074    1.000
    N1963    N        0.33477    0.65449    0.75078    1.000
    Si1964   Si       0.29411    0.60356    0.90226    1.000
    Si1965   Si       0.31695    0.53627    0.92915    1.000
    N1966    N        0.33623    0.61211    0.90761    1.000
    N1967    N        0.32235    0.59239    0.98357    1.000
    N1968    N        0.33513    0.52805    0.96991    1.000
    N1969    N        0.28732    0.56876    0.92880    1.000
    Si1970   Si       0.28506    0.57625    0.97195    1.000
    N1971    N        0.32775    0.69457    0.90997    1.000
    N1972    N        0.33146    0.65161    0.96446    1.000
    Si1973   Si       0.30429    0.67007    0.93672    1.000
    N1974    N        0.32321    0.74761    0.98455    1.000
    Si1975   Si       0.31126    0.72024    0.87724    1.000
    N1976    N        0.29498    0.75517    0.89729    1.000
    N1977    N        0.33952    0.68491    0.81498    1.000
    N1978    N        0.33303    0.83928    0.04835    1.000
    Si1979   Si       0.29253    0.82547    0.04873    1.000
    Si1980   Si       0.32467    0.81181    0.11339    1.000
    N1981    N        0.28984    0.80760    0.08744    1.000
    Si1982   Si       0.32195    0.78726    0.99996    1.000
    N1983    N        0.31150    0.89055    0.01258    1.000
    Si1984   Si       0.33120    0.91657    0.04367    1.000
    N1985    N        0.32128    0.95845    0.03578    1.000
    N1986    N        0.30609    0.91833    0.07899    1.000
    Si1987   Si       0.30784    0.99805    0.10866    1.000
    Si1988   Si       0.32234    0.92381    0.11839    1.000
    Si1989   Si       0.28511    0.95245    0.21980    1.000
    N1990    N        0.33563    0.85557    0.12125    1.000
    Si1991   Si       0.30656    0.86233    0.15208    1.000
    N1992    N        0.31469    0.80357    0.15536    1.000
    N1993    N        0.32855    0.85793    0.18967    1.000
    N1994    N        0.29371    0.00797    0.14942    1.000
    N1995    N        0.32131    0.97130    0.20399    1.000
    Si1996   Si       0.32869    0.99141    0.16765    1.000
    N1997    N        0.33220    0.96467    0.12769    1.000
    N1998    N        0.29805    0.90423    0.14697    1.000
    N1999    N        0.29977    0.91197    0.23145    1.000
    Si2000   Si       0.33362    0.88390    0.22743    1.000
    Si2001   Si       0.30839    0.85102    0.28128    1.000
    N2002    N        0.30911    0.80917    0.29770    1.000
    Si2003   Si       0.32979    0.76794    0.30493    1.000
    N2004    N        0.29300    0.88068    0.30893    1.000
    Si2005   Si       0.32037    0.90014    0.33997    1.000
    Si2006   Si       0.30294    0.98797    0.27569    1.000
    N2007    N        0.29979    0.98404    0.31964    1.000
    N2008    N        0.29484    0.92479    0.36564    1.000
    Si2009   Si       0.33189    0.00724    0.33723    1.000
    N2010    N        0.34046    0.96490    0.27008    1.000
    N2011    N        0.31661    0.80176    0.41234    1.000
    N2012    N        0.28802    0.86779    0.40968    1.000
    Si2013   Si       0.30773    0.76017    0.41485    1.000
    N2014    N        0.32175    0.95420    0.48720    1.000
    N2015    N        0.33359    0.92118    0.43394    1.000
    Si2016   Si       0.30092    0.94818    0.44811    1.000
    Si2017   Si       0.33169    0.88253    0.41515    1.000
    N2018    N        0.28543    0.98725    0.43711    1.000
    Si2019   Si       0.30340    0.76263    0.49756    1.000
    N2020    N        0.31096    0.82471    0.60526    1.000
    N2021    N        0.32989    0.86533    0.51159    1.000
    Si2022   Si       0.30228    0.83294    0.50435    1.000
    Si2023   Si       0.33154    0.78491    0.59863    1.000
    Si2024   Si       0.28982    0.85151    0.57919    1.000
    N2025    N        0.32994    0.79630    0.50367    1.000
    N2026    N        0.30736    0.76287    0.56985    1.000
    N2027    N        0.33900    0.92566    0.72966    1.000
    N2028    N        0.31047    0.89035    0.57830    1.000
    Si2029   Si       0.29157    0.92628    0.59128    1.000
    Si2030   Si       0.30786    0.99543    0.58499    1.000
    N2031    N        0.32989    0.99447    0.54704    1.000
    Si2032   Si       0.31995    0.95506    0.52984    1.000
    N2033    N        0.31383    0.95976    0.60793    1.000
    Si2034   Si       0.32260    0.00286    0.67331    1.000
    Si2035   Si       0.30351    0.81703    0.64708    1.000
    N2036    N        0.33008    0.78003    0.64460    1.000
    N2037    N        0.31361    0.85430    0.66858    1.000
    N2038    N        0.30489    0.85040    0.74082    1.000
    Si2039   Si       0.28954    0.86554    0.70301    1.000
    N2040    N        0.33380    0.91830    0.65684    1.000
    N2041    N        0.29956    0.97109    0.69204    1.000
    Si2042   Si       0.31348    0.93025    0.69289    1.000
    N2043    N        0.31785    0.83467    0.80400    1.000
    Si2044   Si       0.32828    0.86355    0.77365    1.000
    N2045    N        0.33358    0.87482    0.85440    1.000
    N2046    N        0.34176    0.80481    0.86188    1.000
    Si2047   Si       0.30220    0.89352    0.83169    1.000
    N2048    N        0.31966    0.90241    0.79140    1.000
    Si2049   Si       0.32322    0.93831    0.76846    1.000
    N2050    N        0.30589    0.99580    0.83038    1.000
    N2051    N        0.29053    0.96509    0.76064    1.000
    N2052    N        0.29040    0.92756    0.85243    1.000
    Si2053   Si       0.28976    0.99844    0.87283    1.000
    Si2054   Si       0.30218    0.79673    0.88199    1.000
    N2055    N        0.29256    0.82054    0.91707    1.000
    Si2056   Si       0.32247    0.84338    0.93971    1.000
    N2057    N        0.32981    0.82515    0.97878    1.000
    N2058    N        0.30351    0.88220    0.94505    1.000
    Si2059   Si       0.32500    0.97272    0.99563    1.000
    N2060    N        0.30776    0.97849    0.90569    1.000
    Si2061   Si       0.33138    0.91441    0.95744    1.000
    N2062    N        0.30129    0.94348    0.96656    1.000
    Si2063   Si       0.28245    0.99313    0.79333    1.000
    N2064    N        0.29389    0.00358    0.99231    1.000
    Si2065   Si       0.38648    0.12041    0.08305    1.000
    Si2066   Si       0.38390    0.02262    0.08957    1.000
    Si2067   Si       0.38687    0.03503    0.00670    1.000
    N2068    N        0.35430    0.09339    0.07009    1.000
    N2069    N        0.39738    0.02617    0.04780    1.000
    N2070    N        0.37024    0.07831    0.00136    1.000
    Si2071   Si       0.38983    0.22242    0.04919    1.000
    N2072    N        0.36481    0.15863    0.08605    1.000
    Si2073   Si       0.37245    0.18881    0.11414    1.000
    N2074    N        0.34641    0.20471    0.04140    1.000
    N2075    N        0.39797    0.21864    0.09466    1.000
    N2076    N        0.38043    0.25237    0.20342    1.000
    Si2077   Si       0.35777    0.22364    0.22561    1.000
    Si2078   Si       0.36251    0.16199    0.17976    1.000
    N2079    N        0.39077    0.17671    0.15051    1.000
    Si2080   Si       0.37884    0.05125    0.15245    1.000
    Si2081   Si       0.37674    0.09534    0.21613    1.000
    N2082    N        0.39782    0.06782    0.18724    1.000
    Si2083   Si       0.39166    0.16009    0.24815    1.000
    N2084    N        0.38056    0.13977    0.21181    1.000
    N2085    N        0.38018    0.09529    0.32378    1.000
    Si2086   Si       0.36554    0.10161    0.28394    1.000
    N2087    N        0.39423    0.08444    0.25647    1.000
    Si2088   Si       0.34894    0.07360    0.34686    1.000
    Si2089   Si       0.39692    0.25295    0.31361    1.000
    N2090    N        0.36799    0.14659    0.28105    1.000
    Si2091   Si       0.37087    0.18871    0.29453    1.000
    N2092    N        0.39270    0.15735    0.36383    1.000
    N2093    N        0.39882    0.21021    0.31851    1.000
    N2094    N        0.38059    0.20100    0.25352    1.000
    N2095    N        0.37506    0.05579    0.37639    1.000
    N2096    N        0.37469    0.10453    0.47234    1.000
    Si2097   Si       0.35815    0.02631    0.40065    1.000
    N2098    N        0.35899    0.04168    0.44143    1.000
    Si2099   Si       0.35182    0.06854    0.47440    1.000
    Si2100   Si       0.38376    0.12603    0.43551    1.000
    N2101    N        0.34999    0.12206    0.40868    1.000
    Si2102   Si       0.38107    0.01419    0.46876    1.000
    N2103    N        0.39450    0.23890    0.47470    1.000
    Si2104   Si       0.37273    0.24697    0.38363    1.000
    Si2105   Si       0.39817    0.19543    0.46102    1.000
    Si2106   Si       0.35915    0.16831    0.39284    1.000
    N2107    N        0.34603    0.21097    0.38838    1.000
    N2108    N        0.38191    0.17042    0.43145    1.000
    Si2109   Si       0.35465    0.25015    0.45767    1.000
    N2110    N        0.37804    0.04583    0.56889    1.000
    Si2111   Si       0.36566    0.01743    0.54068    1.000
    Si2112   Si       0.36283    0.05434    0.60856    1.000
    N2113    N        0.35144    0.12371    0.53269    1.000
    Si2114   Si       0.38572    0.12693    0.50717    1.000
    N2115    N        0.36660    0.03787    0.50319    1.000
    N2116    N        0.36582    0.09596    0.61678    1.000
    Si2117   Si       0.39867    0.12072    0.60526    1.000
    Si2118   Si       0.36382    0.15512    0.56007    1.000
    Si2119   Si       0.37709    0.22813    0.55356    1.000
    N2120    N        0.37511    0.24260    0.59599    1.000
    N2121    N        0.34703    0.19425    0.54537    1.000
    N2122    N        0.35701    0.15716    0.60384    1.000
    N2123    N        0.37765    0.20992    0.65890    1.000
    Si2124   Si       0.38594    0.05152    0.70690    1.000
    N2125    N        0.39121    0.03394    0.63322    1.000
    N2126    N        0.34437    0.10635    0.71707    1.000
    Si2127   Si       0.35620    0.14723    0.70672    1.000
    Si2128   Si       0.34797    0.18486    0.63778    1.000
    N2129    N        0.39938    0.22474    0.72900    1.000
    N2130    N        0.39687    0.15955    0.70842    1.000
    Si2131   Si       0.40435    0.19878    0.69324    1.000
    N2132    N        0.34536    0.03872    0.69374    1.000
    N2133    N        0.34397    0.25502    0.74629    1.000
    N2134    N        0.38352    0.17063    0.49466    1.000
    Si2135   Si       0.36326    0.05354    0.85018    1.000
    N2136    N        0.36816    0.02560    0.81721    1.000
    Si2137   Si       0.39663    0.02753    0.78380    1.000
    Si2138   Si       0.36498    0.09119    0.75434    1.000
    N2139    N        0.38091    0.05218    0.75125    1.000
    N2140    N        0.39573    0.11886    0.76188    1.000
    Si2141   Si       0.39960    0.19623    0.88884    1.000
    N2142    N        0.37983    0.13781    0.82116    1.000
    N2143    N        0.35382    0.19906    0.78871    1.000
    Si2144   Si       0.38007    0.18096    0.81913    1.000
    N2145    N        0.37153    0.19943    0.85621    1.000
    Si2146   Si       0.36099    0.21593    0.74882    1.000
    N2147    N        0.40276    0.06324    0.86309    1.000
    Si2148   Si       0.35837    0.03080    0.92373    1.000
    N2149    N        0.38940    0.06509    0.93105    1.000
    Si2150   Si       0.36220    0.08426    0.95903    1.000
    N2151    N        0.34693    0.12413    0.95080    1.000
    N2152    N        0.36389    0.24349    0.96135    1.000
    Si2153   Si       0.34731    0.21159    0.93736    1.000
    Si2154   Si       0.35232    0.15510    0.98078    1.000
    N2155    N        0.38367    0.18655    0.92925    1.000
    N2156    N        0.39544    0.15973    0.98908    1.000
    Si2157   Si       0.35715    0.26965    0.99479    1.000
    Si2158   Si       0.34938    0.39088    0.10383    1.000
    N2159    N        0.39042    0.40351    0.10290    1.000
    N2160    N        0.37951    0.44590    0.02548    1.000
    Si2161   Si       0.36920    0.40402    0.03067    1.000
    N2162    N        0.36060    0.47271    0.09251    1.000
    Si2163   Si       0.35846    0.47709    0.04844    1.000
    Si2164   Si       0.39235    0.50569    0.09602    1.000
    N2165    N        0.34358    0.35248    0.12587    1.000
    N2166    N        0.37552    0.31819    0.18342    1.000
    Si2167   Si       0.35598    0.35461    0.16654    1.000
    Si2168   Si       0.35471    0.28227    0.18266    1.000
    N2169    N        0.35467    0.26194    0.14343    1.000
    N2170    N        0.37874    0.38953    0.17967    1.000
    Si2171   Si       0.34175    0.40250    0.20616    1.000
    N2172    N        0.36734    0.39180    0.24026    1.000
    N2173    N        0.39251    0.44994    0.15494    1.000
    N2174    N        0.39104    0.48092    0.22189    1.000
    Si2175   Si       0.35010    0.47440    0.23345    1.000
    Si2176   Si       0.35559    0.45847    0.13213    1.000
    Si2177   Si       0.40123    0.40735    0.14504    1.000
    N2178    N        0.38952    0.50819    0.05098    1.000
    N2179    N        0.38686    0.25909    0.02539    1.000
    N2180    N        0.34695    0.25794    0.08250    1.000
    Si2181   Si       0.38298    0.25806    0.10985    1.000
    N2182    N        0.35315    0.38307    0.99674    1.000
    Si2183   Si       0.37327    0.31774    0.33835    1.000
    N2184    N        0.37878    0.27402    0.34877    1.000
    N2185    N        0.36716    0.27093    0.28631    1.000
    N2186    N        0.37301    0.39106    0.31132    1.000
    N2187    N        0.36500    0.45512    0.27319    1.000
    Si2188   Si       0.35603    0.41164    0.27644    1.000
    Si2189   Si       0.35261    0.40325    0.34786    1.000
    N2190    N        0.34581    0.44531    0.33891    1.000
    N2191    N        0.37454    0.33271    0.37967    1.000
    Si2192   Si       0.36912    0.34798    0.48057    1.000
    N2193    N        0.36229    0.34600    0.43950    1.000
    Si2194   Si       0.38258    0.36784    0.40807    1.000
    Si2195   Si       0.35347    0.31164    0.41190    1.000
    N2196    N        0.36485    0.26884    0.41938    1.000
    N2197    N        0.34904    0.28419    0.48215    1.000
    N2198    N        0.39919    0.31981    0.49341    1.000
    N2199    N        0.39647    0.43349    0.44159    1.000
    Si2200   Si       0.34303    0.46819    0.37686    1.000
    Si2201   Si       0.35958    0.44096    0.46336    1.000
    N2202    N        0.38202    0.38910    0.49119    1.000
    N2203    N        0.38487    0.46995    0.38806    1.000
    N2204    N        0.38043    0.40077    0.38078    1.000
    Si2205   Si       0.36420    0.28580    0.58238    1.000
    N2206    N        0.37638    0.37506    0.55821    1.000
    N2207    N        0.37001    0.26631    0.53854    1.000
    Si2208   Si       0.39057    0.27762    0.50093    1.000
    N2209    N        0.40190    0.30669    0.59639    1.000
    Si2210   Si       0.37219    0.41347    0.52569    1.000
    N2211    N        0.35695    0.49834    0.55539    1.000
    N2212    N        0.36618    0.45182    0.50293    1.000
    N2213    N        0.37393    0.42865    0.61644    1.000
    Si2214   Si       0.34956    0.48921    0.51471    1.000
    Si2215   Si       0.39510    0.40596    0.58759    1.000
    Si2216   Si       0.35855    0.29332    0.72998    1.000
    N2217    N        0.34564    0.48885    0.72785    1.000
    N2218    N        0.36414    0.41588    0.73264    1.000
    Si2219   Si       0.39067    0.50630    0.63568    1.000
    N2220    N        0.35076    0.49193    0.63191    1.000
    N2221    N        0.39698    0.36252    0.72622    1.000
    N2222    N        0.37403    0.34039    0.84733    1.000
    Si2223   Si       0.36099    0.37020    0.75755    1.000
    N2224    N        0.35253    0.32575    0.75747    1.000
    N2225    N        0.38054    0.38514    0.79576    1.000
    N2226    N        0.37482    0.43357    0.84726    1.000
    Si2227   Si       0.35436    0.41435    0.81376    1.000
    Si2228   Si       0.35146    0.46898    0.86044    1.000
    N2229    N        0.38047    0.50187    0.85181    1.000
    Si2230   Si       0.39130    0.32087    0.94999    1.000
    N2231    N        0.36347    0.31018    0.98044    1.000
    N2232    N        0.36906    0.32055    0.91076    1.000
    Si2233   Si       0.39596    0.31499    0.87495    1.000
    N2234    N        0.39825    0.49117    0.77520    1.000
    N2235    N        0.39553    0.41764    0.91713    1.000
    N2236    N        0.39863    0.47280    0.96206    1.000
    Si2237   Si       0.37223    0.45058    0.93359    1.000
    N2238    N        0.36292    0.47552    0.90197    1.000
    Si2239   Si       0.36053    0.59911    0.05661    1.000
    N2240    N        0.37398    0.56942    0.02746    1.000
    N2241    N        0.39085    0.60447    0.08716    1.000
    N2242    N        0.37583    0.66563    0.13077    1.000
    N2243    N        0.35059    0.63711    0.03156    1.000
    Si2244   Si       0.35047    0.75431    0.07060    1.000
    N2245    N        0.37991    0.70649    0.01832    1.000
    Si2246   Si       0.38450    0.66424    0.02691    1.000
    N2247    N        0.38176    0.72689    0.08501    1.000
    N2248    N        0.37321    0.53150    0.12545    1.000
    Si2249   Si       0.39183    0.62527    0.12544    1.000
    N2250    N        0.38056    0.59430    0.15253    1.000
    Si2251   Si       0.37301    0.61047    0.23942    1.000
    Si2252   Si       0.40142    0.55805    0.14336    1.000
    N2253    N        0.38178    0.56811    0.24269    1.000
    N2254    N        0.39608    0.75039    0.22398    1.000
    Si2255   Si       0.38982    0.70583    0.12338    1.000
    N2256    N        0.38856    0.74151    0.15054    1.000
    N2257    N        0.37720    0.59824    0.33869    1.000
    N2258    N        0.35736    0.62240    0.27774    1.000
    Si2259   Si       0.35869    0.54234    0.27183    1.000
    N2260    N        0.38879    0.51787    0.29274    1.000
    N2261    N        0.40374    0.53848    0.36077    1.000
    Si2262   Si       0.37553    0.66194    0.28703    1.000
    N2263    N        0.36128    0.68969    0.36439    1.000
    Si2264   Si       0.36933    0.73315    0.36527    1.000
    Si2265   Si       0.40201    0.67896    0.34839    1.000
    N2266    N        0.37528    0.68365    0.24826    1.000
    Si2267   Si       0.37656    0.57214    0.37289    1.000
    N2268    N        0.35978    0.52382    0.48895    1.000
    N2269    N        0.38214    0.52984    0.42433    1.000
    Si2270   Si       0.34688    0.51564    0.44625    1.000
    N2271    N        0.39533    0.59244    0.40474    1.000
    N2272    N        0.40074    0.75176    0.39378    1.000
    Si2273   Si       0.39271    0.74733    0.43598    1.000
    Si2274   Si       0.39068    0.63471    0.40923    1.000
    N2275    N        0.34822    0.63961    0.40999    1.000
    N2276    N        0.37274    0.71416    0.45619    1.000
    Si2277   Si       0.39294    0.67636    0.47235    1.000
    N2278    N        0.36258    0.64983    0.48392    1.000
    N2279    N        0.34358    0.74672    0.27012    1.000
    N2280    N        0.35897    0.54889    0.60252    1.000
    Si2281   Si       0.38428    0.52779    0.57170    1.000
    N2282    N        0.35188    0.58937    0.51215    1.000
    Si2283   Si       0.38268    0.55811    0.50595    1.000
    Si2284   Si       0.36984    0.62829    0.52142    1.000
    N2285    N        0.35651    0.64341    0.55950    1.000
    Si2286   Si       0.38725    0.64649    0.59277    1.000
    N2287    N        0.36457    0.72636    0.57121    1.000
    Si2288   Si       0.39180    0.75918    0.56101    1.000
    Si2289   Si       0.37863    0.57844    0.62606    1.000
    N2290    N        0.35374    0.60359    0.71002    1.000
    N2291    N        0.38979    0.55267    0.73810    1.000
    N2292    N        0.34823    0.60115    0.64578    1.000
    Si2293   Si       0.37535    0.59196    0.74587    1.000
    Si2294   Si       0.38483    0.68870    0.66180    1.000
    Si2295   Si       0.38553    0.75792    0.74398    1.000
    N2296    N        0.36976    0.66497    0.62784    1.000
    N2297    N        0.38356    0.66603    0.70046    1.000
    Si2298   Si       0.34608    0.64664    0.71007    1.000
    N2299    N        0.35372    0.71847    0.66870    1.000
    N2300    N        0.40021    0.60624    0.60452    1.000
    N2301    N        0.40206    0.55507    0.54391    1.000
    N2302    N        0.40140    0.54868    0.65048    1.000
    Si2303   Si       0.35687    0.56164    0.80550    1.000
    N2304    N        0.35124    0.59640    0.77974    1.000
    Si2305   Si       0.36843    0.51600    0.75353    1.000
    Si2306   Si       0.34579    0.63833    0.79245    1.000
    N2307    N        0.38714    0.64378    0.80655    1.000
    N2308    N        0.38072    0.73587    0.78493    1.000
    Si2309   Si       0.38379    0.67969    0.83206    1.000
    Si2310   Si       0.34380    0.72727    0.80851    1.000
    N2311    N        0.34307    0.73743    0.85114    1.000
    Si2312   Si       0.37421    0.69345    0.90951    1.000
    N2313    N        0.39341    0.59467    0.88693    1.000
    Si2314   Si       0.35704    0.62412    0.94292    1.000
    Si2315   Si       0.35966    0.56114    0.98636    1.000
    N2316    N        0.38418    0.59230    0.95925    1.000
    Si2317   Si       0.35317    0.58371    0.88064    1.000
    Si2318   Si       0.37838    0.51545    0.89383    1.000
    N2319    N        0.34864    0.54569    0.90258    1.000
    N2320    N        0.37884    0.71281    0.95168    1.000
    N2321    N        0.37711    0.66835    0.87301    1.000
    N2322    N        0.39158    0.65382    0.93179    1.000
    Si2323   Si       0.36591    0.73534    0.98701    1.000
    Si2324   Si       0.36971    0.81428    0.05687    1.000
    N2325    N        0.39204    0.84948    0.07920    1.000
    N2326    N        0.35635    0.78919    0.09638    1.000
    N2327    N        0.38512    0.83720    0.01535    1.000
    N2328    N        0.34704    0.77861    0.03533    1.000
    Si2329   Si       0.37715    0.87061    0.11374    1.000
    Si2330   Si       0.34536    0.85758    0.00651    1.000
    N2331    N        0.36735    0.00995    0.16274    1.000
    N2332    N        0.37142    0.90299    0.03820    1.000
    N2333    N        0.39239    0.97889    0.09176    1.000
    Si2334   Si       0.39051    0.92225    0.00313    1.000
    N2335    N        0.36668    0.91464    0.11446    1.000
    Si2336   Si       0.37560    0.95740    0.12332    1.000
    Si2337   Si       0.38790    0.77896    0.12622    1.000
    N2338    N        0.38097    0.81083    0.15713    1.000
    N2339    N        0.34941    0.80037    0.22092    1.000
    Si2340   Si       0.37311    0.82972    0.24491    1.000
    N2341    N        0.39579    0.84917    0.21292    1.000
    Si2342   Si       0.35339    0.75964    0.22985    1.000
    N2343    N        0.38863    0.98048    0.22334    1.000
    Si2344   Si       0.35470    0.95459    0.22813    1.000
    N2345    N        0.36639    0.91251    0.22039    1.000
    Si2346   Si       0.34540    0.81964    0.18184    1.000
    N2347    N        0.38974    0.84791    0.32193    1.000
    Si2348   Si       0.38251    0.85888    0.36391    1.000
    Si2349   Si       0.37503    0.87780    0.29318    1.000
    N2350    N        0.39457    0.80455    0.27105    1.000
    N2351    N        0.34642    0.86127    0.26418    1.000
    N2352    N        0.35362    0.76415    0.33965    1.000
    Si2353   Si       0.36581    0.94981    0.30305    1.000
    N2354    N        0.36637    0.98221    0.33317    1.000
    N2355    N        0.35546    0.90869    0.31428    1.000
    N2356    N        0.34470    0.87938    0.37313    1.000
    Si2357   Si       0.35690    0.81447    0.42081    1.000
    Si2358   Si       0.36219    0.86159    0.48117    1.000
    N2359    N        0.38391    0.82113    0.38700    1.000
    N2360    N        0.37308    0.78343    0.44923    1.000
    Si2361   Si       0.37027    0.79078    0.49217    1.000
    N2362    N        0.38879    0.83024    0.49245    1.000
    N2363    N        0.34869    0.85249    0.44133    1.000
    N2364    N        0.38752    0.99320    0.39820    1.000
    Si2365   Si       0.35725    0.93552    0.46834    1.000
    N2366    N        0.37966    0.97179    0.46168    1.000
    N2367    N        0.38242    0.90229    0.47813    1.000
    N2368    N        0.37199    0.79405    0.58066    1.000
    N2369    N        0.38062    0.86349    0.56324    1.000
    Si2370   Si       0.39008    0.83086    0.59724    1.000
    N2371    N        0.39366    0.76347    0.51737    1.000
    Si2372   Si       0.38613    0.94904    0.55803    1.000
    N2373    N        0.38173    0.94657    0.60305    1.000
    N2374    N        0.35052    0.92673    0.54251    1.000
    N2375    N        0.39692    0.98669    0.54030    1.000
    N2376    N        0.39953    0.77127    0.66983    1.000
    N2377    N        0.37882    0.85720    0.63265    1.000
    Si2378   Si       0.34930    0.87815    0.65734    1.000
    N2379    N        0.34943    0.76711    0.71877    1.000
    Si2380   Si       0.35698    0.76178    0.67395    1.000
    Si2381   Si       0.39889    0.00414    0.66119    1.000
    Si2382   Si       0.37564    0.90047    0.72917    1.000
    N2383    N        0.38087    0.88406    0.68865    1.000
    N2384    N        0.35913    0.98181    0.65839    1.000
    Si2385   Si       0.35030    0.94906    0.63147    1.000
    Si2386   Si       0.34413    0.88392    0.54817    1.000
    N2387    N        0.38538    0.83856    0.81486    1.000
    N2388    N        0.36855    0.86632    0.75478    1.000
    Si2389   Si       0.39611    0.83705    0.77194    1.000
    N2390    N        0.39544    0.79318    0.76782    1.000
    Si2391   Si       0.34702    0.83887    0.83438    1.000
    Si2392   Si       0.36912    0.77011    0.86746    1.000
    Si2393   Si       0.34903    0.98605    0.82542    1.000
    N2394    N        0.36574    0.96628    0.86077    1.000
    N2395    N        0.35451    0.95898    0.79236    1.000
    Si2396   Si       0.39427    0.95623    0.77776    1.000
    N2397    N        0.39556    0.89717    0.86551    1.000
    N2398    N        0.39194    0.76925    0.97718    1.000
    Si2399   Si       0.38702    0.82253    0.91294    1.000
    N2400    N        0.37791    0.78076    0.90940    1.000
    N2401    N        0.35584    0.85124    0.91557    1.000
    N2402    N        0.36508    0.88489    0.97302    1.000
    Si2403   Si       0.34935    0.96287    0.90141    1.000
    N2404    N        0.37084    0.99004    0.92719    1.000
    Si2405   Si       0.35712    0.88669    0.89097    1.000
    Si2406   Si       0.38698    0.98023    0.96831    1.000
    N2407    N        0.34858    0.92187    0.91462    1.000
    N2408    N        0.35759    0.00327    0.99439    1.000
    N2409    N        0.35982    0.94483    0.98112    1.000
    Si2410   Si       0.40147    0.94011    0.85406    1.000
    Si2411   Si       0.44702    0.11857    0.08328    1.000
    N2412    N        0.41840    0.12231    0.11476    1.000
    N2413    N        0.41618    0.12678    0.05119    1.000
    N2414    N        0.40680    0.04698    0.11786    1.000
    Si2415   Si       0.45068    0.05452    0.12264    1.000
    Si2416   Si       0.44901    0.22496    0.00755    1.000
    Si2417   Si       0.42467    0.15926    0.02146    1.000
    N2418    N        0.42438    0.20017    0.03472    1.000
    Si2419   Si       0.43846    0.21959    0.11671    1.000
    N2420    N        0.45302    0.17889    0.12263    1.000
    Si2421   Si       0.43941    0.05553    0.19429    1.000
    N2422    N        0.45707    0.06672    0.23218    1.000
    N2423    N        0.43781    0.01325    0.18297    1.000
    Si2424   Si       0.42116    0.24720    0.18846    1.000
    N2425    N        0.42090    0.24975    0.14393    1.000
    Si2426   Si       0.45363    0.16831    0.21155    1.000
    N2427    N        0.44631    0.13899    0.18136    1.000
    Si2428   Si       0.42564    0.15181    0.14481    1.000
    N2429    N        0.44761    0.21221    0.19870    1.000
    N2430    N        0.43441    0.15773    0.24833    1.000
    N2431    N        0.46194    0.07332    0.16228    1.000
    Si2432   Si       0.43177    0.06063    0.26699    1.000
    N2433    N        0.42731    0.01927    0.34727    1.000
    N2434    N        0.42698    0.01808    0.27174    1.000
    Si2435   Si       0.41032    0.12133    0.34314    1.000
    N2436    N        0.45742    0.06246    0.30473    1.000
    N2437    N        0.43909    0.09466    0.36248    1.000
    N2438    N        0.44081    0.13144    0.31193    1.000
    Si2439   Si       0.41373    0.19329    0.35506    1.000
    N2440    N        0.45496    0.18602    0.35626    1.000
    Si2441   Si       0.41912    0.05472    0.37065    1.000
    N2442    N        0.42511    0.01633    0.47473    1.000
    Si2443   Si       0.44530    0.11327    0.47454    1.000
    N2444    N        0.43715    0.05140    0.41087    1.000
    N2445    N        0.42600    0.11528    0.43393    1.000
    Si2446   Si       0.45138    0.01968    0.43876    1.000
    Si2447   Si       0.45208    0.09361    0.40630    1.000
    Si2448   Si       0.44512    0.23266    0.41073    1.000
    N2449    N        0.44136    0.20270    0.44674    1.000
    N2450    N        0.41143    0.22622    0.38499    1.000
    Si2451   Si       0.43920    0.23991    0.47597    1.000
    Si2452   Si       0.42130    0.05053    0.57323    1.000
    N2453    N        0.43163    0.08984    0.58798    1.000
    N2454    N        0.42709    0.11270    0.51390    1.000
    N2455    N        0.43742    0.04433    0.53450    1.000
    Si2456   Si       0.44485    0.11860    0.55517    1.000
    N2457    N        0.45240    0.03187    0.59890    1.000
    Si2458   Si       0.45180    0.24417    0.53792    1.000
    N2459    N        0.41817    0.21650    0.54874    1.000
    Si2460   Si       0.43119    0.18197    0.57080    1.000
    N2461    N        0.42715    0.19601    0.61157    1.000
    N2462    N        0.40499    0.14459    0.56604    1.000
    N2463    N        0.40779    0.08958    0.69924    1.000
    Si2464   Si       0.43751    0.10753    0.67082    1.000
    N2465    N        0.41203    0.01875    0.69933    1.000
    N2466    N        0.45764    0.13036    0.70098    1.000
    Si2467   Si       0.44586    0.17156    0.64272    1.000
    Si2468   Si       0.42285    0.12769    0.72872    1.000
    N2469    N        0.42239    0.13442    0.63901    1.000
    Si2470   Si       0.40100    0.22841    0.62526    1.000
    N2471    N        0.44280    0.20136    0.67393    1.000
    Si2472   Si       0.42742    0.25878    0.73516    1.000
    N2473    N        0.43278    0.04266    0.80246    1.000
    N2474    N        0.44222    0.11204    0.82134    1.000
    Si2475   Si       0.43542    0.07098    0.83454    1.000
    N2476    N        0.43535    0.17371    0.87640    1.000
    N2477    N        0.45411    0.13894    0.76427    1.000
    Si2478   Si       0.41978    0.13877    0.79503    1.000
    N2479    N        0.42270    0.18198    0.80763    1.000
    Si2480   Si       0.45519    0.18662    0.83924    1.000
    Si2481   Si       0.45485    0.02508    0.95963    1.000
    N2482    N        0.44739    0.03371    0.91731    1.000
    N2483    N        0.44599    0.10347    0.90121    1.000
    Si2484   Si       0.42206    0.06688    0.90243    1.000
    N2485    N        0.41804    0.01250    0.97968    1.000
    Si2486   Si       0.40412    0.24585    0.94397    1.000
    Si2487   Si       0.41454    0.18092    0.95752    1.000
    N2488    N        0.45200    0.16509    0.94343    1.000
    Si2489   Si       0.45290    0.14470    0.90347    1.000
    N2490    N        0.42582    0.22061    0.97165    1.000
    N2491    N        0.41208    0.23736    0.90240    1.000
    Si2492   Si       0.43991    0.25445    0.87345    1.000
    N2493    N        0.42715    0.32454    0.03107    1.000
    Si2494   Si       0.41919    0.28370    0.04265    1.000
    N2495    N        0.41260    0.28121    0.08543    1.000
    Si2496   Si       0.42684    0.36234    0.00579    1.000
    N2497    N        0.45041    0.36893    0.08430    1.000
    Si2498   Si       0.44421    0.28332    0.11307    1.000
    N2499    N        0.45520    0.26216    0.02880    1.000
    N2500    N        0.40782    0.38612    0.03725    1.000
    N2501    N        0.44886    0.47536    0.01063    1.000
    Si2502   Si       0.42235    0.40103    0.07475    1.000
    N2503    N        0.44740    0.43773    0.07635    1.000
    N2504    N        0.43307    0.49943    0.10916    1.000
    Si2505   Si       0.40578    0.38558    0.22084    1.000
    Si2506   Si       0.45374    0.35098    0.12431    1.000
    N2507    N        0.43099    0.35481    0.20342    1.000
    N2508    N        0.43963    0.28261    0.20365    1.000
    N2509    N        0.42993    0.31625    0.14241    1.000
    Si2510   Si       0.42029    0.31771    0.18398    1.000
    N2511    N        0.43928    0.38551    0.14763    1.000
    N2512    N        0.42639    0.42525    0.22033    1.000
    Si2513   Si       0.41398    0.45634    0.19281    1.000
    N2514    N        0.45121    0.47825    0.18542    1.000
    Si2515   Si       0.45971    0.33793    0.05822    1.000
    Si2516   Si       0.46249    0.46724    0.10605    1.000
    Si2517   Si       0.41376    0.45242    0.99828    1.000
    Si2518   Si       0.44321    0.30687    0.30497    1.000
    Si2519   Si       0.41338    0.37329    0.30460    1.000
    N2520    N        0.40636    0.33117    0.31383    1.000
    N2521    N        0.43621    0.26461    0.30293    1.000
    N2522    N        0.43154    0.38107    0.26635    1.000
    N2523    N        0.43871    0.39322    0.33127    1.000
    N2524    N        0.43928    0.46463    0.27351    1.000
    Si2525   Si       0.44567    0.42348    0.25958    1.000
    Si2526   Si       0.40272    0.48698    0.26390    1.000
    N2527    N        0.42187    0.37525    0.42948    1.000
    N2528    N        0.44683    0.26573    0.43925    1.000
    Si2529   Si       0.41439    0.40179    0.46489    1.000
    Si2530   Si       0.40462    0.50718    0.39060    1.000
    Si2531   Si       0.40395    0.43241    0.39807    1.000
    N2532    N        0.44660    0.43384    0.39053    1.000
    N2533    N        0.44729    0.50211    0.40143    1.000
    N2534    N        0.44510    0.41895    0.49071    1.000
    N2535    N        0.43453    0.27334    0.50874    1.000
    Si2536   Si       0.44225    0.31711    0.50537    1.000
    N2537    N        0.44068    0.33976    0.54543    1.000
    N2538    N        0.41203    0.37097    0.60658    1.000
    Si2539   Si       0.40543    0.34334    0.57163    1.000
    Si2540   Si       0.42585    0.46705    0.57731    1.000
    N2541    N        0.43735    0.43713    0.60985    1.000
    Si2542   Si       0.44354    0.42653    0.53174    1.000
    N2543    N        0.41086    0.50301    0.59661    1.000
    N2544    N        0.45684    0.46747    0.54651    1.000
    N2545    N        0.40492    0.43045    0.55238    1.000
    Si2546   Si       0.42618    0.36995    0.64773    1.000
    Si2547   Si       0.42966    0.30199    0.63266    1.000
    N2548    N        0.41973    0.32956    0.66382    1.000
    Si2549   Si       0.41938    0.32996    0.70701    1.000
    N2550    N        0.40151    0.29282    0.72183    1.000
    N2551    N        0.42637    0.25926    0.64557    1.000
    Si2552   Si       0.40669    0.43831    0.64398    1.000
    N2553    N        0.43498    0.50815    0.71984    1.000
    N2554    N        0.42845    0.43525    0.73522    1.000
    N2555    N        0.41068    0.47624    0.66302    1.000
    N2556    N        0.40863    0.40208    0.67134    1.000
    Si2557   Si       0.44873    0.48832    0.68221    1.000
    Si2558   Si       0.40302    0.40474    0.71603    1.000
    Si2559   Si       0.42897    0.47724    0.74865    1.000
    N2560    N        0.43317    0.33623    0.81087    1.000
    Si2561   Si       0.43477    0.29165    0.81376    1.000
    N2562    N        0.41515    0.28332    0.85126    1.000
    N2563    N        0.43147    0.26665    0.77954    1.000
    Si2564   Si       0.40444    0.36616    0.82564    1.000
    N2565    N        0.42211    0.38746    0.85785    1.000
    N2566    N        0.43759    0.45660    0.86877    1.000
    N2567    N        0.45603    0.39504    0.91674    1.000
    Si2568   Si       0.40816    0.42522    0.87250    1.000
    N2569    N        0.43426    0.41594    0.98225    1.000
    Si2570   Si       0.42288    0.39632    0.94283    1.000
    Si2571   Si       0.45062    0.30275    0.92248    1.000
    Si2572   Si       0.45010    0.36635    0.88386    1.000
    N2573    N        0.43242    0.33011    0.89451    1.000
    N2574    N        0.41418    0.35471    0.96283    1.000
    N2575    N        0.41716    0.28794    0.94596    1.000
    N2576    N        0.43922    0.55664    0.05762    1.000
    Si2577   Si       0.43271    0.59581    0.08771    1.000
    Si2578   Si       0.40620    0.54097    0.02950    1.000
    N2579    N        0.43670    0.56391    0.11799    1.000
    N2580    N        0.45472    0.61811    0.05649    1.000
    Si2581   Si       0.45739    0.53242    0.09182    1.000
    Si2582   Si       0.44103    0.66521    0.09191    1.000
    N2583    N        0.41891    0.66979    0.05391    1.000
    N2584    N        0.44448    0.73498    0.05440    1.000
    Si2585   Si       0.44701    0.64800    0.02547    1.000
    Si2586   Si       0.40765    0.71496    0.05217    1.000
    N2587    N        0.43655    0.63085    0.12093    1.000
    N2588    N        0.42617    0.54038    0.17444    1.000
    N2589    N        0.45220    0.58509    0.23345    1.000
    Si2590   Si       0.44647    0.51688    0.20476    1.000
    Si2591   Si       0.45162    0.62774    0.24267    1.000
    N2592    N        0.40959    0.63160    0.22883    1.000
    Si2593   Si       0.41091    0.73352    0.18694    1.000
    N2594    N        0.43246    0.69546    0.12269    1.000
    Si2595   Si       0.41259    0.67432    0.22935    1.000
    N2596    N        0.41924    0.69089    0.19037    1.000
    N2597    N        0.45381    0.74166    0.18016    1.000
    Si2598   Si       0.45328    0.69844    0.16023    1.000
    N2599    N        0.41863    0.57626    0.29427    1.000
    Si2600   Si       0.41740    0.54076    0.32039    1.000
    N2601    N        0.45170    0.60634    0.34755    1.000
    Si2602   Si       0.41530    0.60993    0.32301    1.000
    N2603    N        0.45661    0.52398    0.31340    1.000
    Si2604   Si       0.42282    0.56109    0.25427    1.000
    N2605    N        0.43659    0.51991    0.24654    1.000
    Si2606   Si       0.44222    0.74857    0.32590    1.000
    N2607    N        0.44448    0.75061    0.28413    1.000
    N2608    N        0.44625    0.66977    0.25678    1.000
    N2609    N        0.41142    0.71975    0.33876    1.000
    Si2610   Si       0.45582    0.64431    0.37099    1.000
    N2611    N        0.40669    0.65094    0.31347    1.000
    N2612    N        0.40765    0.57594    0.47586    1.000
    Si2613   Si       0.45209    0.58036    0.47304    1.000
    N2614    N        0.45198    0.56411    0.43287    1.000
    Si2615   Si       0.40751    0.56412    0.43385    1.000
    N2616    N        0.41423    0.65259    0.37932    1.000
    N2617    N        0.41702    0.65213    0.44417    1.000
    N2618    N        0.42934    0.74513    0.46020    1.000
    Si2619   Si       0.43273    0.58762    0.54224    1.000
    N2620    N        0.41313    0.62310    0.52801    1.000
    Si2621   Si       0.44501    0.61104    0.61117    1.000
    N2622    N        0.45984    0.60285    0.57086    1.000
    N2623    N        0.42579    0.70713    0.66377    1.000
    Si2624   Si       0.41591    0.65450    0.72457    1.000
    N2625    N        0.43333    0.74614    0.56612    1.000
    Si2626   Si       0.42932    0.66142    0.53366    1.000
    N2627    N        0.41945    0.66979    0.57671    1.000
    Si2628   Si       0.44846    0.70479    0.57486    1.000
    N2629    N        0.41276    0.69278    0.50787    1.000
    Si2630   Si       0.42340    0.73541    0.50193    1.000
    Si2631   Si       0.43370    0.55028    0.72771    1.000
    Si2632   Si       0.44186    0.55455    0.65958    1.000
    N2633    N        0.44569    0.57775    0.69607    1.000
    Si2634   Si       0.43115    0.74477    0.68529    1.000
    N2635    N        0.40801    0.61893    0.75019    1.000
    N2636    N        0.45437    0.64206    0.64097    1.000
    N2637    N        0.45376    0.64659    0.70555    1.000
    N2638    N        0.41845    0.73781    0.72628    1.000
    Si2639   Si       0.45968    0.68402    0.64857    1.000
    Si2640   Si       0.44153    0.55441    0.80439    1.000
    N2641    N        0.39923    0.55173    0.80775    1.000
    N2642    N        0.44718    0.51126    0.81667    1.000
    Si2643   Si       0.45231    0.66483    0.84667    1.000
    N2644    N        0.45014    0.74686    0.78971    1.000
    Si2645   Si       0.42294    0.64341    0.78276    1.000
    N2646    N        0.42295    0.69771    0.83823    1.000
    N2647    N        0.42741    0.67980    0.75951    1.000
    Si2648   Si       0.42575    0.73556    0.86091    1.000
    Si2649   Si       0.44552    0.71888    0.75776    1.000
    N2650    N        0.45465    0.64081    0.81198    1.000
    Si2651   Si       0.41923    0.51073    0.95582    1.000
    Si2652   Si       0.42224    0.61005    0.97557    1.000
    N2653    N        0.43960    0.60090    0.93696    1.000
    N2654    N        0.40929    0.53221    0.91742    1.000
    Si2655   Si       0.40706    0.57545    0.92355    1.000
    N2656    N        0.40487    0.53712    0.98546    1.000
    Si2657   Si       0.40726    0.67930    0.96352    1.000
    N2658    N        0.44231    0.63926    0.88120    1.000
    N2659    N        0.41218    0.64735    0.99540    1.000
    Si2660   Si       0.40009    0.63686    0.89189    1.000
    N2661    N        0.44236    0.70079    0.95638    1.000
    N2662    N        0.45849    0.56021    0.76330    1.000
    Si2663   Si       0.40529    0.75163    0.93489    1.000
    N2664    N        0.40271    0.72615    0.89699    1.000
    Si2665   Si       0.40435    0.50763    0.81558    1.000
    N2666    N        0.43093    0.78379    0.11235    1.000
    Si2667   Si       0.44104    0.77487    0.07138    1.000
    N2668    N        0.40786    0.78804    0.04861    1.000
    Si2669   Si       0.40745    0.80149    0.00487    1.000
    N2670    N        0.44349    0.88213    0.05630    1.000
    Si2671   Si       0.41376    0.98574    0.05242    1.000
    N2672    N        0.41138    0.95776    0.02059    1.000
    N2673    N        0.45549    0.98834    0.05860    1.000
    N2674    N        0.45019    0.81414    0.17143    1.000
    Si2675   Si       0.41227    0.83829    0.17326    1.000
    N2676    N        0.40680    0.87241    0.14680    1.000
    N2677    N        0.45823    0.78451    0.23710    1.000
    N2678    N        0.40366    0.95262    0.15560    1.000
    N2679    N        0.43652    0.90748    0.19656    1.000
    Si2680   Si       0.42518    0.91278    0.15435    1.000
    N2681    N        0.45084    0.95941    0.23868    1.000
    Si2682   Si       0.40558    0.89305    0.22374    1.000
    Si2683   Si       0.40210    0.98908    0.18344    1.000
    N2684    N        0.45761    0.91402    0.12336    1.000
    Si2685   Si       0.46246    0.89424    0.01899    1.000
    Si2686   Si       0.40158    0.87097    0.04168    1.000
    N2687    N        0.42437    0.89258    0.99713    1.000
    N2688    N        0.42691    0.78715    0.33796    1.000
    Si2689   Si       0.41635    0.81629    0.30754    1.000
    N2690    N        0.45329    0.83334    0.28946    1.000
    Si2691   Si       0.41973    0.77076    0.25460    1.000
    Si2692   Si       0.44881    0.87634    0.28121    1.000
    N2693    N        0.40939    0.88605    0.26734    1.000
    N2694    N        0.42386    0.94911    0.35723    1.000
    Si2695   Si       0.43982    0.94325    0.31659    1.000
    Si2696   Si       0.41753    0.97893    0.25613    1.000
    N2697    N        0.40643    0.95283    0.29053    1.000
    N2698    N        0.45679    0.90272    0.31634    1.000
    Si2699   Si       0.40200    0.98551    0.35882    1.000
    N2700    N        0.42208    0.87489    0.37633    1.000
    Si2701   Si       0.41432    0.79093    0.37981    1.000
    Si2702   Si       0.44674    0.85319    0.40439    1.000
    Si2703   Si       0.43122    0.83696    0.48264    1.000
    N2704    N        0.44733    0.80911    0.40177    1.000
    N2705    N        0.43179    0.86082    0.44508    1.000
    N2706    N        0.45885    0.80284    0.48424    1.000
    N2707    N        0.45433    0.91700    0.47220    1.000
    Si2708   Si       0.40543    0.96907    0.42850    1.000
    Si2709   Si       0.42906    0.91687    0.38526    1.000
    N2710    N        0.40515    0.92553    0.41987    1.000
    N2711    N        0.44802    0.97675    0.42947    1.000
    Si2712   Si       0.41679    0.90147    0.45347    1.000
    N2713    N        0.44302    0.86773    0.58311    1.000
    N2714    N        0.44188    0.86518    0.51437    1.000
    N2715    N        0.42660    0.81289    0.61491    1.000
    Si2716   Si       0.41946    0.87837    0.55045    1.000
    Si2717   Si       0.46116    0.82770    0.59321    1.000
    N2718    N        0.42004    0.92290    0.54646    1.000
    Si2719   Si       0.43015    0.00430    0.51748    1.000
    N2720    N        0.45416    0.95447    0.58964    1.000
    Si2721   Si       0.42385    0.94373    0.61862    1.000
    Si2722   Si       0.45927    0.94092    0.54756    1.000
    N2723    N        0.43049    0.84012    0.67764    1.000
    Si2724   Si       0.42974    0.80140    0.65723    1.000
    Si2725   Si       0.40985    0.87317    0.65769    1.000
    Si2726   Si       0.45377    0.84706    0.71673    1.000
    N2727    N        0.46152    0.77278    0.67257    1.000
    Si2728   Si       0.43756    0.00075    0.72824    1.000
    N2729    N        0.42921    0.97538    0.64844    1.000
    N2730    N        0.45367    0.96491    0.71163    1.000
    N2731    N        0.43350    0.90535    0.63561    1.000
    Si2732   Si       0.44926    0.92838    0.73525    1.000
    N2733    N        0.40702    0.92660    0.74656    1.000
    Si2734   Si       0.41474    0.81661    0.84195    1.000
    N2735    N        0.45170    0.81572    0.81851    1.000
    N2736    N        0.43473    0.84485    0.75499    1.000
    Si2737   Si       0.41035    0.76193    0.80064    1.000
    N2738    N        0.40532    0.77280    0.84187    1.000
    N2739    N        0.41893    0.89535    0.92847    1.000
    N2740    N        0.45887    0.88398    0.81339    1.000
    N2741    N        0.41749    0.94545    0.81431    1.000
    N2742    N        0.41053    0.99172    0.76267    1.000
    Si2743   Si       0.45526    0.92521    0.80779    1.000
    Si2744   Si       0.44667    0.96531    0.99489    1.000
    Si2745   Si       0.42692    0.87654    0.89030    1.000
    N2746    N        0.44274    0.77527    0.93179    1.000
    Si2747   Si       0.44800    0.81093    0.95399    1.000
    N2748    N        0.41185    0.83565    0.88074    1.000
    N2749    N        0.41099    0.83114    0.94944    1.000
    Si2750   Si       0.40541    0.87216    0.96296    1.000
    N2751    N        0.44924    0.80160    0.99566    1.000
    N2752    N        0.42002    0.95161    0.96106    1.000
    Si2753   Si       0.43551    0.93435    0.92526    1.000
    N2754    N        0.42787    0.95493    0.88520    1.000
    Si2755   Si       0.50354    0.07322    0.07138    1.000
    N2756    N        0.50308    0.09335    0.03282    1.000
    N2757    N        0.50903    0.03099    0.06658    1.000
    N2758    N        0.46712    0.08019    0.09250    1.000
    Si2759   Si       0.49821    0.13740    0.03525    1.000
    N2760    N        0.46562    0.15057    0.00953    1.000
    N2761    N        0.48215    0.14317    0.07519    1.000
    Si2762   Si       0.49309    0.15940    0.11382    1.000
    N2763    N        0.47166    0.24719    0.10544    1.000
    Si2764   Si       0.51575    0.24123    0.10642    1.000
    N2765    N        0.47144    0.01644    0.12532    1.000
    Si2766   Si       0.49751    0.08326    0.23662    1.000
    N2767    N        0.50690    0.11279    0.20659    1.000
    Si2768   Si       0.48051    0.11104    0.17267    1.000
    N2769    N        0.50354    0.12665    0.13942    1.000
    N2770    N        0.49397    0.17826    0.22526    1.000
    Si2771   Si       0.48704    0.22070    0.21852    1.000
    N2772    N        0.49068    0.12047    0.26644    1.000
    N2773    N        0.49745    0.02389    0.34684    1.000
    Si2774   Si       0.46741    0.09806    0.32603    1.000
    N2775    N        0.50953    0.11454    0.32928    1.000
    Si2776   Si       0.46153    0.02033    0.31742    1.000
    N2777    N        0.49711    0.24282    0.32357    1.000
    N2778    N        0.48051    0.19065    0.29409    1.000
    Si2779   Si       0.46581    0.23533    0.29289    1.000
    N2780    N        0.47820    0.24677    0.25120    1.000
    Si2781   Si       0.46254    0.15285    0.27983    1.000
    N2782    N        0.49376    0.02647    0.44298    1.000
    Si2783   Si       0.50483    0.06816    0.45082    1.000
    N2784    N        0.49339    0.09396    0.41543    1.000
    N2785    N        0.47212    0.07958    0.47610    1.000
    Si2786   Si       0.51835    0.13003    0.41865    1.000
    Si2787   Si       0.51263    0.13994    0.49311    1.000
    N2788    N        0.48882    0.22847    0.39584    1.000
    N2789    N        0.47366    0.14511    0.47454    1.000
    Si2790   Si       0.49120    0.19049    0.37600    1.000
    Si2791   Si       0.47987    0.18089    0.45020    1.000
    N2792    N        0.51248    0.21037    0.45983    1.000
    N2793    N        0.49352    0.16448    0.41169    1.000
    N2794    N        0.48175    0.09348    0.54589    1.000
    Si2795   Si       0.47104    0.06439    0.51593    1.000
    N2796    N        0.50365    0.03459    0.51587    1.000
    N2797    N        0.50997    0.06682    0.61136    1.000
    Si2798   Si       0.46505    0.07067    0.61002    1.000
    Si2799   Si       0.50570    0.16387    0.56304    1.000
    N2800    N        0.46850    0.22229    0.50612    1.000
    Si2801   Si       0.51209    0.21344    0.50350    1.000
    N2802    N        0.46493    0.15467    0.56212    1.000
    N2803    N        0.47512    0.25570    0.57086    1.000
    N2804    N        0.51637    0.17322    0.51862    1.000
    N2805    N        0.48972    0.16557    0.64111    1.000
    N2806    N        0.46554    0.08196    0.65152    1.000
    Si2807   Si       0.50957    0.07972    0.65325    1.000
    N2808    N        0.50223    0.08893    0.72732    1.000
    Si2809   Si       0.50227    0.04685    0.71723    1.000
    N2810    N        0.46991    0.02874    0.74031    1.000
    N2811    N        0.51406    0.04225    0.67630    1.000
    Si2812   Si       0.49141    0.13354    0.73181    1.000
    N2813    N        0.51828    0.16054    0.70804    1.000
    N2814    N        0.46480    0.25812    0.71044    1.000
    N2815    N        0.49288    0.23714    0.63797    1.000
    Si2816   Si       0.51150    0.20108    0.62598    1.000
    Si2817   Si       0.46037    0.24234    0.66820    1.000
    N2818    N        0.48930    0.07888    0.79007    1.000
    Si2819   Si       0.47321    0.03920    0.78244    1.000
    N2820    N        0.46875    0.06362    0.85957    1.000
    Si2821   Si       0.48068    0.12538    0.80105    1.000
    N2822    N        0.51489    0.13149    0.77188    1.000
    N2823    N        0.51978    0.10647    0.84815    1.000
    Si2824   Si       0.51890    0.23633    0.96687    1.000
    N2825    N        0.48795    0.16249    0.82529    1.000
    N2826    N        0.46326    0.22860    0.84930    1.000
    Si2827   Si       0.49749    0.25646    0.83598    1.000
    N2828    N        0.48186    0.04694    0.98405    1.000
    Si2829   Si       0.48849    0.09878    0.88089    1.000
    N2830    N        0.50880    0.06685    0.90834    1.000
    Si2831   Si       0.48304    0.03468    0.88881    1.000
    Si2832   Si       0.51166    0.07420    0.99714    1.000
    Si2833   Si       0.51494    0.01161    0.98683    1.000
    N2834    N        0.50917    0.22077    0.92577    1.000
    Si2835   Si       0.51551    0.17773    0.91318    1.000
    N2836    N        0.49518    0.14236    0.89439    1.000
    N2837    N        0.48716    0.21125    0.98968    1.000
    Si2838   Si       0.48421    0.17219    0.97493    1.000
    N2839    N        0.49653    0.32188    0.04295    1.000
    Si2840   Si       0.49466    0.27754    0.03232    1.000
    N2841    N        0.47138    0.31404    0.09598    1.000
    N2842    N        0.47194    0.36934    0.00931    1.000
    Si2843   Si       0.51254    0.35368    0.01882    1.000
    Si2844   Si       0.51346    0.31045    0.08299    1.000
    N2845    N        0.49778    0.46096    0.13290    1.000
    N2846    N        0.48451    0.49035    0.07441    1.000
    N2847    N        0.49506    0.43116    0.02896    1.000
    Si2848   Si       0.47129    0.46011    0.04642    1.000
    Si2849   Si       0.51148    0.42380    0.21960    1.000
    N2850    N        0.48718    0.34747    0.15539    1.000
    N2851    N        0.49023    0.36468    0.22165    1.000
    Si2852   Si       0.47071    0.28587    0.23402    1.000
    N2853    N        0.50850    0.29924    0.21101    1.000
    Si2854   Si       0.46649    0.37574    0.18305    1.000
    N2855    N        0.51092    0.46702    0.21076    1.000
    Si2856   Si       0.48623    0.45608    0.17525    1.000
    N2857    N        0.48799    0.41433    0.18175    1.000
    N2858    N        0.49754    0.36364    0.28822    1.000
    N2859    N        0.47043    0.32010    0.33767    1.000
    Si2860   Si       0.50548    0.32682    0.30988    1.000
    Si2861   Si       0.46543    0.35508    0.25615    1.000
    N2862    N        0.45729    0.31421    0.26390    1.000
    N2863    N        0.49835    0.42983    0.32922    1.000
    N2864    N        0.48847    0.42136    0.25784    1.000
    Si2865   Si       0.50699    0.40617    0.29348    1.000
    Si2866   Si       0.46659    0.41322    0.35566    1.000
    Si2867   Si       0.46284    0.50118    0.27616    1.000
    N2868    N        0.50205    0.51093    0.26203    1.000
    Si2869   Si       0.47246    0.46644    0.40381    1.000
    Si2870   Si       0.49410    0.34062    0.37317    1.000
    N2871    N        0.46887    0.33089    0.40809    1.000
    N2872    N        0.47435    0.32249    0.47636    1.000
    Si2873   Si       0.47224    0.30005    0.43909    1.000
    N2874    N        0.51156    0.28084    0.43590    1.000
    N2875    N        0.48952    0.38386    0.38084    1.000
    Si2876   Si       0.46197    0.37357    0.41767    1.000
    N2877    N        0.48537    0.45809    0.44532    1.000
    N2878    N        0.51263    0.46539    0.38720    1.000
    N2879    N        0.49330    0.38953    0.44387    1.000
    Si2880   Si       0.48406    0.42342    0.47127    1.000
    Si2881   Si       0.51069    0.48776    0.46331    1.000
    Si2882   Si       0.51267    0.33047    0.49459    1.000
    Si2883   Si       0.47592    0.36279    0.55347    1.000
    N2884    N        0.50544    0.35111    0.58470    1.000
    N2885    N        0.50509    0.36648    0.52156    1.000
    Si2886   Si       0.49460    0.26828    0.60792    1.000
    Si2887   Si       0.51371    0.45937    0.67532    1.000
    N2888    N        0.49803    0.50503    0.50185    1.000
    N2889    N        0.50707    0.43642    0.50642    1.000
    Si2890   Si       0.49696    0.47191    0.53044    1.000
    Si2891   Si       0.47089    0.40943    0.60406    1.000
    N2892    N        0.51486    0.41640    0.60861    1.000
    N2893    N        0.46496    0.40159    0.56273    1.000
    N2894    N        0.47305    0.30247    0.62270    1.000
    Si2895   Si       0.50738    0.26466    0.72002    1.000
    Si2896   Si       0.49175    0.34187    0.62460    1.000
    N2897    N        0.46720    0.37805    0.63323    1.000
    N2898    N        0.46050    0.33089    0.72154    1.000
    N2899    N        0.51741    0.47799    0.63492    1.000
    Si2900   Si       0.47248    0.43917    0.73240    1.000
    N2901    N        0.47537    0.45533    0.69240    1.000
    N2902    N        0.49495    0.35082    0.78490    1.000
    N2903    N        0.48537    0.35929    0.85787    1.000
    Si2904   Si       0.47550    0.33879    0.82161    1.000
    N2905    N        0.47766    0.29412    0.82534    1.000
    N2906    N        0.51410    0.29179    0.75408    1.000
    N2907    N        0.49660    0.47513    0.82617    1.000
    N2908    N        0.46988    0.47328    0.76207    1.000
    Si2909   Si       0.48487    0.50019    0.79193    1.000
    Si2910   Si       0.46276    0.48633    0.85122    1.000
    N2911    N        0.49929    0.40969    0.74767    1.000
    Si2912   Si       0.51526    0.30610    0.96556    1.000
    N2913    N        0.48046    0.32010    0.94620    1.000
    N2914    N        0.47007    0.27246    0.89970    1.000
    N2915    N        0.51320    0.27231    0.99445    1.000
    Si2916   Si       0.51034    0.25999    0.90533    1.000
    Si2917   Si       0.49012    0.50565    0.91735    1.000
    Si2918   Si       0.47878    0.50127    0.98963    1.000
    Si2919   Si       0.47460    0.41001    0.99547    1.000
    N2920    N        0.46235    0.50614    0.95041    1.000
    Si2921   Si       0.48922    0.42012    0.92424    1.000
    N2922    N        0.50182    0.41987    0.96397    1.000
    N2923    N        0.49913    0.46367    0.91271    1.000
    Si2924   Si       0.51431    0.38965    0.78126    1.000
    N2925    N        0.51406    0.41074    0.82046    1.000
    N2926    N        0.51795    0.40737    0.89400    1.000
    Si2927   Si       0.49633    0.33054    0.74560    1.000
    Si2928   Si       0.47052    0.58250    0.03339    1.000
    N2929    N        0.48568    0.53807    0.01041    1.000
    N2930    N        0.50481    0.62898    0.11006    1.000
    N2931    N        0.51184    0.58274    0.04889    1.000
    N2932    N        0.49287    0.53177    0.12061    1.000
    N2933    N        0.46270    0.60646    0.99664    1.000
    N2934    N        0.47857    0.68278    0.08014    1.000
    Si2935   Si       0.48300    0.70923    0.04579    1.000
    N2936    N        0.46944    0.68292    0.01430    1.000
    Si2937   Si       0.51814    0.66749    0.08602    1.000
    N2938    N        0.47965    0.59319    0.16628    1.000
    N2939    N        0.48554    0.53685    0.19855    1.000
    Si2940   Si       0.48870    0.58173    0.20831    1.000
    Si2941   Si       0.46866    0.55327    0.15206    1.000
    Si2942   Si       0.47345    0.62787    0.14278    1.000
    Si2943   Si       0.51513    0.51021    0.21744    1.000
    N2944    N        0.49077    0.63165    0.22086    1.000
    N2945    N        0.48234    0.66603    0.16392    1.000
    Si2946   Si       0.51245    0.66102    0.19338    1.000
    Si2947   Si       0.51997    0.50641    0.09762    1.000
    N2948    N        0.52302    0.58006    0.23723    1.000
    Si2949   Si       0.49349    0.53450    0.33437    1.000
    N2950    N        0.51092    0.57065    0.31593    1.000
    Si2951   Si       0.49043    0.60796    0.32577    1.000
    N2952    N        0.48395    0.62593    0.28641    1.000
    Si2953   Si       0.51474    0.61918    0.25564    1.000
    N2954    N        0.51668    0.61591    0.36060    1.000
    Si2955   Si       0.50082    0.70125    0.33131    1.000
    N2956    N        0.50227    0.69402    0.28992    1.000
    N2957    N        0.48344    0.74014    0.33489    1.000
    N2958    N        0.46629    0.67093    0.33673    1.000
    Si2959   Si       0.46859    0.66878    0.29396    1.000
    N2960    N        0.49398    0.54834    0.37485    1.000
    N2961    N        0.47182    0.61932    0.47025    1.000
    N2962    N        0.51027    0.52224    0.43630    1.000
    Si2963   Si       0.47575    0.53391    0.41123    1.000
    Si2964   Si       0.51336    0.61533    0.48778    1.000
    Si2965   Si       0.46074    0.65391    0.44401    1.000
    N2966    N        0.48084    0.65187    0.40591    1.000
    N2967    N        0.47763    0.68608    0.46651    1.000
    N2968    N        0.51779    0.74481    0.47746    1.000
    Si2969   Si       0.50234    0.59409    0.56260    1.000
    Si2970   Si       0.50334    0.54669    0.51293    1.000
    N2971    N        0.51050    0.62436    0.53037    1.000
    N2972    N        0.51863    0.55450    0.55328    1.000
    N2973    N        0.46383    0.56760    0.51418    1.000
    N2974    N        0.46586    0.74267    0.50982    1.000
    N2975    N        0.47168    0.70379    0.61078    1.000
    N2976    N        0.50435    0.74388    0.56878    1.000
    Si2977   Si       0.50983    0.66635    0.54213    1.000
    N2978    N        0.46986    0.68302    0.53963    1.000
    Si2979   Si       0.51477    0.71407    0.59978    1.000
    Si2980   Si       0.50864    0.58465    0.63736    1.000
    N2981    N        0.50686    0.60979    0.67408    1.000
    N2982    N        0.46837    0.52106    0.66127    1.000
    Si2983   Si       0.51058    0.51766    0.65360    1.000
    N2984    N        0.46427    0.57974    0.63333    1.000
    Si2985   Si       0.46299    0.61503    0.67726    1.000
    N2986    N        0.48488    0.70999    0.73940    1.000
    Si2987   Si       0.51686    0.73773    0.73727    1.000
    N2988    N        0.49347    0.69185    0.67429    1.000
    Si2989   Si       0.48859    0.67390    0.71526    1.000
    N2990    N        0.52261    0.75325    0.69717    1.000
    N2991    N        0.51946    0.60672    0.60119    1.000
    Si2992   Si       0.49321    0.70881    0.49897    1.000
    Si2993   Si       0.48694    0.60979    0.81816    1.000
    Si2994   Si       0.49178    0.55507    0.86226    1.000
    Si2995   Si       0.50246    0.56732    0.76122    1.000
    N2996    N        0.50818    0.60683    0.78114    1.000
    N2997    N        0.46873    0.57418    0.83174    1.000
    N2998    N        0.51225    0.53322    0.78814    1.000
    N2999    N        0.51417    0.70441    0.95061    1.000
    Si3000   Si       0.49818    0.72413    0.85032    1.000
    N3001    N        0.49058    0.67998    0.85448    1.000
    N3002    N        0.51161    0.72695    0.80812    1.000
    N3003    N        0.46696    0.74744    0.86701    1.000
    N3004    N        0.47753    0.51813    0.87733    1.000
    Si3005   Si       0.49530    0.61805    0.97058    1.000
    Si3006   Si       0.46830    0.61584    0.90766    1.000
    N3007    N        0.49200    0.58190    0.89733    1.000
    N3008    N        0.49692    0.63930    0.93039    1.000
    Si3009   Si       0.47969    0.70421    0.97682    1.000
    N3010    N        0.48949    0.74376    0.99421    1.000
    N3011    N        0.47847    0.79154    0.05487    1.000
    N3012    N        0.49776    0.86755    0.01796    1.000
    Si3013   Si       0.48412    0.78375    0.01299    1.000
    N3014    N        0.47416    0.84465    0.11484    1.000
    N3015    N        0.50132    0.78359    0.11981    1.000
    Si3016   Si       0.51516    0.79162    0.07789    1.000
    Si3017   Si       0.46209    0.88253    0.09459    1.000
    Si3018   Si       0.46541    0.93951    0.20487    1.000
    N3019    N        0.50612    0.93399    0.21698    1.000
    N3020    N        0.50453    0.88809    0.08512    1.000
    N3021    N        0.47428    0.93526    0.01277    1.000
    N3022    N        0.50622    0.96332    0.09581    1.000
    Si3023   Si       0.48625    0.99984    0.08758    1.000
    Si3024   Si       0.51545    0.94404    0.01151    1.000
    Si3025   Si       0.49225    0.93820    0.13216    1.000
    Si3026   Si       0.46972    0.78155    0.19503    1.000
    N3027    N        0.51353    0.77815    0.19058    1.000
    Si3028   Si       0.46364    0.80395    0.12955    1.000
    Si3029   Si       0.47820    0.00367    0.16609    1.000
    N3030    N        0.47400    0.95852    0.16739    1.000
    Si3031   Si       0.49866    0.83649    0.28234    1.000
    N3032    N        0.50428    0.79047    0.29549    1.000
    N3033    N        0.51092    0.85648    0.31974    1.000
    Si3034   Si       0.51369    0.77120    0.33371    1.000
    N3035    N        0.48792    0.87574    0.25963    1.000
    N3036    N        0.50791    0.79795    0.36755    1.000
    Si3037   Si       0.51595    0.83875    0.35865    1.000
    Si3038   Si       0.48322    0.76385    0.26664    1.000
    Si3039   Si       0.51103    0.96938    0.30226    1.000
    Si3040   Si       0.50056    0.90017    0.32177    1.000
    Si3041   Si       0.51423    0.90977    0.25212    1.000
    N3042    N        0.46874    0.97627    0.31502    1.000
    N3043    N        0.51415    0.92801    0.29216    1.000
    N3044    N        0.50854    0.00352    0.27662    1.000
    Si3045   Si       0.49019    0.80595    0.40575    1.000
    N3046    N        0.48958    0.85545    0.39006    1.000
    N3047    N        0.49009    0.76821    0.42986    1.000
    N3048    N        0.49811    0.85450    0.49091    1.000
    Si3049   Si       0.46971    0.76466    0.46955    1.000
    Si3050   Si       0.47278    0.94222    0.44020    1.000
    N3051    N        0.46860    0.91678    0.40540    1.000
    Si3052   Si       0.50584    0.89546    0.39807    1.000
    N3053    N        0.51456    0.95355    0.44775    1.000
    Si3054   Si       0.49492    0.82806    0.52907    1.000
    N3055    N        0.47004    0.80521    0.55828    1.000
    N3056    N        0.51159    0.85763    0.55402    1.000
    Si3057   Si       0.47029    0.76380    0.54844    1.000
    N3058    N        0.48643    0.84699    0.62519    1.000
    Si3059   Si       0.46759    0.88577    0.61518    1.000
    Si3060   Si       0.47377    0.99441    0.60027    1.000
    N3061    N        0.50223    0.90611    0.60512    1.000
    N3062    N        0.49075    0.91864    0.52759    1.000
    Si3063   Si       0.50552    0.99608    0.53135    1.000
    N3064    N        0.50885    0.00495    0.57396    1.000
    Si3065   Si       0.47399    0.88967    0.49759    1.000
    N3066    N        0.46382    0.97930    0.52662    1.000
    Si3067   Si       0.50041    0.78859    0.68352    1.000
    N3068    N        0.48984    0.82329    0.71039    1.000
    Si3069   Si       0.51715    0.81397    0.74749    1.000
    Si3070   Si       0.51171    0.93986    0.63193    1.000
    N3071    N        0.49375    0.92921    0.66984    1.000
    Si3072   Si       0.46577    0.96420    0.67016    1.000
    Si3073   Si       0.50145    0.89575    0.69504    1.000
    N3074    N        0.46163    0.89083    0.71515    1.000
    N3075    N        0.49550    0.98124    0.63574    1.000
    N3076    N        0.50092    0.84155    0.77570    1.000
    Si3077   Si       0.48724    0.81699    0.84379    1.000
    N3078    N        0.50599    0.77444    0.75704    1.000
    N3079    N        0.50771    0.85381    0.84170    1.000
    N3080    N        0.51573    0.79088    0.82487    1.000
    Si3081   Si       0.49144    0.76351    0.79716    1.000
    Si3082   Si       0.49215    0.89151    0.85482    1.000
    N3083    N        0.47653    0.93332    0.84436    1.000
    N3084    N        0.47403    0.93345    0.76937    1.000
    Si3085   Si       0.51641    0.92940    0.76335    1.000
    Si3086   Si       0.51879    0.00093    0.83558    1.000
    N3087    N        0.48225    0.81144    0.88665    1.000
    Si3088   Si       0.51177    0.84520    0.98463    1.000
    Si3089   Si       0.47581    0.77202    0.90284    1.000
    Si3090   Si       0.49398    0.84699    0.91021    1.000
    N3091    N        0.48200    0.83875    0.95039    1.000
    N3092    N        0.46909    0.87529    0.88875    1.000
    N3093    N        0.51487    0.76703    0.92482    1.000
    Si3094   Si       0.47021    0.95980    0.87725    1.000
    Si3095   Si       0.50561    0.96121    0.94627    1.000
    N3096    N        0.48812    0.99857    0.86592    1.000
    N3097    N        0.47969    0.94423    0.91655    1.000
    N3098    N        0.47881    0.98758    0.97107    1.000
    Si3099   Si       0.46199    0.84742    0.78946    1.000
    N3100    N        0.50367    0.01146    0.79726    1.000
    N3101    N        0.53840    0.09021    0.09043    1.000
    Si3102   Si       0.54397    0.01611    0.04503    1.000
    N3103    N        0.54103    0.04198    0.00463    1.000
    N3104    N        0.55338    0.16556    0.20354    1.000
    N3105    N        0.53343    0.16089    0.02765    1.000
    N3106    N        0.56658    0.23499    0.09628    1.000
    Si3107   Si       0.56124    0.19568    0.11550    1.000
    Si3108   Si       0.57074    0.16035    0.05074    1.000
    N3109    N        0.51830    0.19680    0.11178    1.000
    Si3110   Si       0.54733    0.03221    0.19235    1.000
    Si3111   Si       0.53956    0.10040    0.13449    1.000
    N3112    N        0.54820    0.06549    0.16087    1.000
    N3113    N        0.57424    0.12391    0.14835    1.000
    N3114    N        0.52647    0.05101    0.22762    1.000
    Si3115   Si       0.52440    0.14834    0.23054    1.000
    N3116    N        0.52291    0.23354    0.19951    1.000
    Si3117   Si       0.57563    0.25406    0.13892    1.000
    Si3118   Si       0.55686    0.20705    0.19512    1.000
    N3119    N        0.57039    0.21213    0.15506    1.000
    N3120    N        0.54276    0.07021    0.29124    1.000
    Si3121   Si       0.53725    0.03199    0.26465    1.000
    Si3122   Si       0.52596    0.11079    0.28896    1.000
    N3123    N        0.56870    0.03056    0.34898    1.000
    Si3124   Si       0.57536    0.04623    0.30968    1.000
    Si3125   Si       0.51689    0.20453    0.31402    1.000
    N3126    N        0.55105    0.14006    0.26673    1.000
    Si3127   Si       0.54010    0.13900    0.35080    1.000
    N3128    N        0.55080    0.22716    0.29821    1.000
    N3129    N        0.52375    0.18014    0.34844    1.000
    N3130    N        0.54744    0.07283    0.45371    1.000
    Si3131   Si       0.56193    0.10545    0.47661    1.000
    N3132    N        0.55226    0.12807    0.39138    1.000
    Si3133   Si       0.51912    0.23839    0.42619    1.000
    N3134    N        0.56029    0.23298    0.41417    1.000
    N3135    N        0.53771    0.13590    0.45690    1.000
    Si3136   Si       0.53471    0.00643    0.35689    1.000
    N3137    N        0.55970    0.00885    0.45663    1.000
    N3138    N        0.55216    0.06121    0.56280    1.000
    N3139    N        0.53599    0.10700    0.51213    1.000
    Si3140   Si       0.53288    0.03594    0.59107    1.000
    Si3141   Si       0.52586    0.09313    0.55261    1.000
    N3142    N        0.53012    0.13051    0.57782    1.000
    Si3143   Si       0.55320    0.21147    0.56493    1.000
    N3144    N        0.54526    0.23369    0.52755    1.000
    Si3145   Si       0.57263    0.13845    0.58047    1.000
    N3146    N        0.55687    0.01963    0.62326    1.000
    N3147    N        0.53792    0.03330    0.74000    1.000
    N3148    N        0.53591    0.11391    0.65909    1.000
    Si3149   Si       0.56484    0.01967    0.70815    1.000
    N3150    N        0.54640    0.18741    0.64991    1.000
    N3151    N        0.53591    0.23282    0.71584    1.000
    Si3152   Si       0.52167    0.15361    0.66693    1.000
    Si3153   Si       0.54621    0.19102    0.72383    1.000
    N3154    N        0.57689    0.17659    0.55748    1.000
    N3155    N        0.51764    0.19986    0.58433    1.000
    N3156    N        0.55869    0.08362    0.79224    1.000
    N3157    N        0.54166    0.03618    0.84890    1.000
    Si3158   Si       0.54924    0.07843    0.83462    1.000
    Si3159   Si       0.52338    0.08727    0.76485    1.000
    N3160    N        0.55664    0.15383    0.82257    1.000
    N3161    N        0.55209    0.19186    0.76755    1.000
    Si3162   Si       0.55184    0.15124    0.78134    1.000
    Si3163   Si       0.55944    0.22500    0.79485    1.000
    Si3164   Si       0.52075    0.15044    0.85074    1.000
    N3165    N        0.52149    0.24435    0.80414    1.000
    Si3166   Si       0.55242    0.12997    0.94479    1.000
    N3167    N        0.53387    0.09473    0.96610    1.000
    N3168    N        0.57089    0.10556    0.91379    1.000
    Si3169   Si       0.54706    0.07070    0.92888    1.000
    N3170    N        0.57228    0.03594    0.91582    1.000
    N3171    N        0.52308    0.16179    0.95515    1.000
    N3172    N        0.54657    0.17600    0.88166    1.000
    N3173    N        0.55817    0.21759    0.97714    1.000
    Si3174   Si       0.55648    0.17644    0.99043    1.000
    Si3175   Si       0.57921    0.17648    0.85388    1.000
    Si3176   Si       0.57834    0.03673    0.87272    1.000
    N3177    N        0.57812    0.26162    0.78041    1.000
    N3178    N        0.54258    0.33207    0.10476    1.000
    Si3179   Si       0.56740    0.26545    0.06420    1.000
    N3180    N        0.52298    0.27025    0.06737    1.000
    N3181    N        0.52960    0.38036    0.04985    1.000
    Si3182   Si       0.54822    0.38734    0.09009    1.000
    N3183    N        0.54463    0.43108    0.08384    1.000
    Si3184   Si       0.53493    0.42161    0.04102    1.000
    N3185    N        0.55684    0.43017    0.00352    1.000
    N3186    N        0.55572    0.48934    0.11475    1.000
    Si3187   Si       0.52828    0.34984    0.14113    1.000
    N3188    N        0.55168    0.34606    0.17823    1.000
    Si3189   Si       0.52865    0.27339    0.18282    1.000
    Si3190   Si       0.52432    0.33996    0.21200    1.000
    N3191    N        0.57366    0.27873    0.18287    1.000
    N3192    N        0.53010    0.26691    0.13819    1.000
    N3193    N        0.55398    0.33960    0.24384    1.000
    N3194    N        0.54926    0.40283    0.21669    1.000
    Si3195   Si       0.53981    0.44809    0.12378    1.000
    N3196    N        0.55823    0.44273    0.16292    1.000
    Si3197   Si       0.55916    0.39785    0.17253    1.000
    N3198    N        0.53908    0.39027    0.13288    1.000
    Si3199   Si       0.56263    0.30664    0.26815    1.000
    N3200    N        0.55495    0.27559    0.35788    1.000
    N3201    N        0.53054    0.33582    0.34327    1.000
    N3202    N        0.52749    0.29513    0.29014    1.000
    Si3203   Si       0.53652    0.26403    0.32101    1.000
    Si3204   Si       0.56691    0.38096    0.25088    1.000
    Si3205   Si       0.57338    0.43718    0.29740    1.000
    N3206    N        0.55507    0.46874    0.27405    1.000
    N3207    N        0.55140    0.40248    0.28440    1.000
    N3208    N        0.56233    0.44708    0.33825    1.000
    Si3209   Si       0.53763    0.50393    0.28567    1.000
    Si3210   Si       0.52320    0.46254    0.34579    1.000
    Si3211   Si       0.55948    0.31962    0.37378    1.000
    N3212    N        0.56264    0.26557    0.47325    1.000
    Si3213   Si       0.54962    0.29868    0.44439    1.000
    N3214    N        0.53119    0.34220    0.40225    1.000
    N3215    N        0.55145    0.33151    0.47222    1.000
    Si3216   Si       0.54404    0.45720    0.41571    1.000
    Si3217   Si       0.52222    0.38309    0.41075    1.000
    N3218    N        0.56278    0.39522    0.48979    1.000
    N3219    N        0.55207    0.41465    0.41295    1.000
    N3220    N        0.54875    0.46409    0.45875    1.000
    Si3221   Si       0.57606    0.43654    0.48085    1.000
    N3222    N        0.57884    0.47855    0.40087    1.000
    N3223    N        0.52048    0.50215    0.32537    1.000
    Si3224   Si       0.55487    0.27307    0.51473    1.000
    N3225    N        0.56529    0.34514    0.57069    1.000
    N3226    N        0.53400    0.28348    0.59207    1.000
    Si3227   Si       0.53091    0.31943    0.56646    1.000
    Si3228   Si       0.57619    0.27645    0.58116    1.000
    Si3229   Si       0.53789    0.38333    0.58651    1.000
    N3230    N        0.52397    0.30235    0.52655    1.000
    N3231    N        0.54895    0.40902    0.55420    1.000
    Si3232   Si       0.53212    0.45627    0.59864    1.000
    Si3233   Si       0.53006    0.39976    0.51694    1.000
    N3234    N        0.52166    0.48381    0.56407    1.000
    N3235    N        0.52808    0.35104    0.72431    1.000
    N3236    N        0.53343    0.28986    0.69039    1.000
    Si3237   Si       0.54037    0.33151    0.68716    1.000
    Si3238   Si       0.56576    0.36552    0.74059    1.000
    N3239    N        0.51954    0.35159    0.65583    1.000
    Si3240   Si       0.56504    0.26110    0.69733    1.000
    N3241    N        0.52837    0.49850    0.69083    1.000
    N3242    N        0.53741    0.42050    0.67651    1.000
    Si3243   Si       0.56898    0.50427    0.70221    1.000
    N3244    N        0.56530    0.38307    0.62259    1.000
    Si3245   Si       0.52876    0.39327    0.64597    1.000
    N3246    N        0.57624    0.45866    0.58983    1.000
    N3247    N        0.55124    0.31122    0.81671    1.000
    N3248    N        0.55977    0.36844    0.85440    1.000
    Si3249   Si       0.55861    0.29479    0.85567    1.000
    N3250    N        0.55614    0.37814    0.78130    1.000
    Si3251   Si       0.53880    0.28160    0.78578    1.000
    Si3252   Si       0.57001    0.35110    0.81436    1.000
    N3253    N        0.52707    0.26626    0.86663    1.000
    Si3254   Si       0.51926    0.38541    0.85568    1.000
    N3255    N        0.57619    0.50652    0.81646    1.000
    Si3256   Si       0.53076    0.44969    0.82223    1.000
    N3257    N        0.55670    0.45455    0.85878    1.000
    N3258    N        0.56123    0.45126    0.79025    1.000
    Si3259   Si       0.53399    0.44759    0.97116    1.000
    N3260    N        0.55872    0.44558    0.93465    1.000
    N3261    N        0.53617    0.34116    0.98209    1.000
    N3262    N        0.53674    0.27604    0.93775    1.000
    N3263    N        0.56530    0.31580    0.89465    1.000
    Si3264   Si       0.57603    0.29042    0.92813    1.000
    Si3265   Si       0.57559    0.35321    0.96701    1.000
    N3266    N        0.52154    0.48661    0.98369    1.000
    Si3267   Si       0.53816    0.44644    0.89713    1.000
    N3268    N        0.56105    0.59095    0.11043    1.000
    N3269    N        0.54342    0.52658    0.06596    1.000
    Si3270   Si       0.53070    0.60560    0.08200    1.000
    Si3271   Si       0.52651    0.54646    0.02884    1.000
    N3272    N        0.52359    0.75363    0.24976    1.000
    N3273    N        0.52787    0.70410    0.04556    1.000
    N3274    N        0.54843    0.68971    0.10726    1.000
    Si3275   Si       0.54214    0.66477    0.02277    1.000
    N3276    N        0.54555    0.64331    0.06341    1.000
    Si3277   Si       0.55887    0.72741    0.06979    1.000
    N3278    N        0.57595    0.74852    0.10550    1.000
    N3279    N        0.57571    0.68578    0.99843    1.000
    Si3280   Si       0.57065    0.71557    0.13464    1.000
    N3281    N        0.55716    0.52318    0.21572    1.000
    Si3282   Si       0.56894    0.62015    0.14453    1.000
    Si3283   Si       0.56266    0.56010    0.24084    1.000
    N3284    N        0.54258    0.73322    0.16177    1.000
    N3285    N        0.54976    0.63887    0.17906    1.000
    Si3286   Si       0.53718    0.73786    0.20686    1.000
    N3287    N        0.52522    0.69369    0.21792    1.000
    N3288    N        0.57727    0.62073    0.00411    1.000
    N3289    N        0.56123    0.55586    0.35413    1.000
    N3290    N        0.55995    0.54024    0.27923    1.000
    Si3291   Si       0.55347    0.56598    0.31153    1.000
    Si3292   Si       0.53489    0.69055    0.26167    1.000
    N3293    N        0.54537    0.64695    0.26363    1.000
    N3294    N        0.53183    0.68919    0.36028    1.000
    N3295    N        0.57079    0.70982    0.27704    1.000
    Si3296   Si       0.57367    0.67875    0.36551    1.000
    N3297    N        0.54753    0.63459    0.46777    1.000
    N3298    N        0.52106    0.57176    0.48304    1.000
    Si3299   Si       0.53063    0.57649    0.37724    1.000
    Si3300   Si       0.56801    0.61901    0.43115    1.000
    Si3301   Si       0.53818    0.55396    0.44785    1.000
    N3302    N        0.54406    0.58264    0.41690    1.000
    N3303    N        0.57721    0.53282    0.45525    1.000
    Si3304   Si       0.56666    0.66819    0.49145    1.000
    N3305    N        0.56026    0.65122    0.40108    1.000
    Si3306   Si       0.55740    0.73525    0.49618    1.000
    Si3307   Si       0.52045    0.65373    0.38531    1.000
    Si3308   Si       0.54613    0.52041    0.56239    1.000
    N3309    N        0.56756    0.51958    0.52545    1.000
    N3310    N        0.56744    0.52291    0.59940    1.000
    N3311    N        0.53477    0.73330    0.63126    1.000
    N3312    N        0.57154    0.62174    0.56089    1.000
    Si3313   Si       0.54831    0.63790    0.59354    1.000
    N3314    N        0.56812    0.74328    0.53782    1.000
    N3315    N        0.53010    0.68865    0.51224    1.000
    N3316    N        0.52568    0.67500    0.58283    1.000
    N3317    N        0.53884    0.57792    0.72989    1.000
    Si3318   Si       0.53570    0.61508    0.70536    1.000
    N3319    N        0.53255    0.55167    0.64610    1.000
    N3320    N        0.57304    0.51481    0.74480    1.000
    N3321    N        0.57521    0.63075    0.69395    1.000
    Si3322   Si       0.52796    0.71847    0.67061    1.000
    N3323    N        0.57214    0.65120    0.62498    1.000
    N3324    N        0.56443    0.69970    0.68803    1.000
    N3325    N        0.52003    0.64897    0.72877    1.000
    Si3326   Si       0.57557    0.55016    0.63590    1.000
    Si3327   Si       0.57340    0.55839    0.74739    1.000
    Si3328   Si       0.54869    0.54026    0.81162    1.000
    N3329    N        0.53398    0.55416    0.84888    1.000
    Si3330   Si       0.55435    0.59286    0.85755    1.000
    N3331    N        0.57283    0.56780    0.78950    1.000
    N3332    N        0.52073    0.61792    0.84413    1.000
    N3333    N        0.57864    0.62766    0.76287    1.000
    Si3334   Si       0.52805    0.66332    0.94667    1.000
    Si3335   Si       0.53592    0.63990    0.76908    1.000
    N3336    N        0.54000    0.66932    0.80041    1.000
    Si3337   Si       0.52856    0.66136    0.84458    1.000
    Si3338   Si       0.55037    0.71178    0.79783    1.000
    N3339    N        0.55320    0.72317    0.75461    1.000
    N3340    N        0.53718    0.73241    0.87019    1.000
    Si3341   Si       0.52034    0.74675    0.96314    1.000
    Si3342   Si       0.54862    0.51350    0.96304    1.000
    Si3343   Si       0.56322    0.58564    0.98382    1.000
    Si3344   Si       0.52709    0.57029    0.92222    1.000
    N3345    N        0.56163    0.58341    0.89911    1.000
    N3346    N        0.52652    0.58802    0.96176    1.000
    N3347    N        0.52448    0.52876    0.93182    1.000
    N3348    N        0.55706    0.54265    0.99684    1.000
    N3349    N        0.56153    0.67002    0.86984    1.000
    N3350    N        0.51982    0.64965    0.98871    1.000
    N3351    N        0.56995    0.65542    0.93775    1.000
    N3352    N        0.55793    0.75312    0.98113    1.000
    Si3353   Si       0.55310    0.78157    0.01213    1.000
    N3354    N        0.53027    0.83207    0.07677    1.000
    N3355    N        0.54243    0.76596    0.05274    1.000
    Si3356   Si       0.52908    0.87227    0.05215    1.000
    N3357    N        0.57474    0.87211    0.04398    1.000
    Si3358   Si       0.54465    0.95285    0.07793    1.000
    N3359    N        0.53905    0.92481    0.04322    1.000
    N3360    N        0.56636    0.98985    0.07216    1.000
    N3361    N        0.57218    0.92984    0.10136    1.000
    N3362    N        0.52438    0.98609    0.02040    1.000
    N3363    N        0.56248    0.80333    0.14230    1.000
    N3364    N        0.55602    0.85066    0.19919    1.000
    N3365    N        0.55006    0.86857    0.13405    1.000
    Si3366   Si       0.53185    0.77394    0.15081    1.000
    Si3367   Si       0.57121    0.84176    0.16098    1.000
    Si3368   Si       0.56519    0.85715    0.24188    1.000
    Si3369   Si       0.52970    0.95663    0.18755    1.000
    N3370    N        0.52917    0.92975    0.15464    1.000
    N3371    N        0.57078    0.95506    0.20541    1.000
    Si3372   Si       0.56220    0.90861    0.13757    1.000
    N3373    N        0.51894    0.80431    0.99837    1.000
    N3374    N        0.52147    0.00031    0.18061    1.000
    Si3375   Si       0.51730    0.85657    0.11137    1.000
    Si3376   Si       0.54132    0.78917    0.26766    1.000
    N3377    N        0.53780    0.83024    0.26014    1.000
    N3378    N        0.55803    0.83916    0.36839    1.000
    N3379    N        0.55532    0.76064    0.33861    1.000
    N3380    N        0.54096    0.96979    0.33294    1.000
    Si3381   Si       0.55426    0.93033    0.34869    1.000
    N3382    N        0.51895    0.90931    0.35981    1.000
    N3383    N        0.55492    0.89774    0.24895    1.000
    N3384    N        0.57751    0.93923    0.38494    1.000
    N3385    N        0.56967    0.77732    0.47774    1.000
    Si3386   Si       0.53348    0.77102    0.44343    1.000
    N3387    N        0.56084    0.76708    0.40804    1.000
    Si3388   Si       0.56074    0.81199    0.40149    1.000
    N3389    N        0.56374    0.84302    0.48511    1.000
    Si3390   Si       0.52927    0.85164    0.46029    1.000
    N3391    N        0.52848    0.81651    0.43117    1.000
    Si3392   Si       0.52261    0.99548    0.43882    1.000
    Si3393   Si       0.54736    0.92487    0.45297    1.000
    N3394    N        0.55428    0.90846    0.49372    1.000
    Si3395   Si       0.56976    0.97913    0.48648    1.000
    N3396    N        0.53687    0.99163    0.39830    1.000
    N3397    N        0.53003    0.88904    0.43346    1.000
    N3398    N        0.55462    0.86012    0.60911    1.000
    N3399    N        0.56113    0.78281    0.59148    1.000
    Si3400   Si       0.56454    0.80776    0.50935    1.000
    N3401    N        0.52491    0.79656    0.52859    1.000
    Si3402   Si       0.53849    0.76629    0.55944    1.000
    Si3403   Si       0.53106    0.88460    0.58192    1.000
    N3404    N        0.55443    0.91571    0.56315    1.000
    Si3405   Si       0.53294    0.92838    0.52648    1.000
    N3406    N        0.53762    0.97052    0.51587    1.000
    Si3407   Si       0.55494    0.77207    0.63258    1.000
    N3408    N        0.53275    0.87207    0.67366    1.000
    N3409    N        0.52864    0.80080    0.65246    1.000
    Si3410   Si       0.52749    0.84326    0.64059    1.000
    Si3411   Si       0.57667    0.95670    0.73426    1.000
    Si3412   Si       0.56604    0.89247    0.69724    1.000
    Si3413   Si       0.52632    0.00868    0.65285    1.000
    Si3414   Si       0.57512    0.95639    0.66367    1.000
    N3415    N        0.53037    0.90663    0.72644    1.000
    N3416    N        0.55033    0.98646    0.68273    1.000
    N3417    N        0.55440    0.94553    0.62716    1.000
    N3418    N        0.56670    0.84318    0.81594    1.000
    Si3419   Si       0.55561    0.80348    0.83393    1.000
    Si3420   Si       0.52803    0.86148    0.80327    1.000
    N3421    N        0.55956    0.82150    0.75361    1.000
    Si3422   Si       0.53994    0.00432    0.77307    1.000
    N3423    N        0.55028    0.96845    0.83405    1.000
    Si3424   Si       0.54929    0.92370    0.82904    1.000
    N3425    N        0.52777    0.90417    0.79707    1.000
    N3426    N        0.53854    0.96573    0.75536    1.000
    N3427    N        0.53232    0.90964    0.86676    1.000
    N3428    N        0.56404    0.79588    0.87604    1.000
    N3429    N        0.55125    0.86222    0.97794    1.000
    N3430    N        0.53481    0.85336    0.90701    1.000
    Si3431   Si       0.54843    0.76158    0.89881    1.000
    Si3432   Si       0.57440    0.83082    0.90141    1.000
    Si3433   Si       0.56096    0.90317    0.96448    1.000
    Si3434   Si       0.55683    0.88890    0.89431    1.000
    N3435    N        0.52534    0.93005    0.97209    1.000
    Si3436   Si       0.57556    0.00321    0.94207    1.000
    N3437    N        0.53542    0.99328    0.95109    1.000
    N3438    N        0.60527    0.09249    0.09794    1.000
    N3439    N        0.61618    0.02476    0.11190    1.000
    Si3440   Si       0.58497    0.04889    0.00277    1.000
    Si3441   Si       0.60349    0.12317    0.00148    1.000
    N3442    N        0.58019    0.04841    0.05198    1.000
    Si3443   Si       0.60176    0.01574    0.07281    1.000
    N3444    N        0.58522    0.11982    0.04079    1.000
    Si3445   Si       0.63167    0.06529    0.11891    1.000
    Si3446   Si       0.60133    0.13235    0.11461    1.000
    N3447    N        0.59143    0.18469    0.02013    1.000
    N3448    N        0.57898    0.16293    0.09360    1.000
    N3449    N        0.58638    0.25302    0.02891    1.000
    N3450    N        0.58946    0.03194    0.19982    1.000
    Si3451   Si       0.59339    0.07036    0.17863    1.000
    N3452    N        0.59121    0.10192    0.20773    1.000
    Si3453   Si       0.62510    0.11918    0.22805    1.000
    N3454    N        0.63218    0.06814    0.16066    1.000
    Si3455   Si       0.62194    0.19079    0.23110    1.000
    N3456    N        0.61996    0.15595    0.20476    1.000
    Si3457   Si       0.58286    0.13951    0.18610    1.000
    N3458    N        0.58897    0.21894    0.22282    1.000
    Si3459   Si       0.57658    0.08779    0.06718    1.000
    Si3460   Si       0.62662    0.00975    0.20572    1.000
    N3461    N        0.61368    0.06486    0.31381    1.000
    N3462    N        0.62150    0.12050    0.27044    1.000
    N3463    N        0.57575    0.01614    0.27727    1.000
    Si3464   Si       0.61622    0.14788    0.35188    1.000
    N3465    N        0.60899    0.18605    0.27256    1.000
    N3466    N        0.62090    0.24338    0.29626    1.000
    Si3467   Si       0.59026    0.14680    0.28446    1.000
    Si3468   Si       0.58396    0.22824    0.27174    1.000
    N3469    N        0.63260    0.18790    0.33922    1.000
    N3470    N        0.57931    0.14055    0.32830    1.000
    Si3471   Si       0.60375    0.03858    0.37507    1.000
    Si3472   Si       0.63343    0.08540    0.47087    1.000
    Si3473   Si       0.58648    0.11106    0.41385    1.000
    N3474    N        0.60003    0.11488    0.45888    1.000
    N3475    N        0.61788    0.04613    0.46336    1.000
    N3476    N        0.58895    0.06904    0.40372    1.000
    Si3477   Si       0.58112    0.04341    0.43864    1.000
    Si3478   Si       0.63371    0.01184    0.48352    1.000
    N3479    N        0.59119    0.19173    0.46409    1.000
    N3480    N        0.62427    0.24696    0.45043    1.000
    N3481    N        0.61737    0.13833    0.39555    1.000
    Si3482   Si       0.61385    0.15493    0.46957    1.000
    Si3483   Si       0.58332    0.23131    0.45158    1.000
    N3484    N        0.61773    0.03939    0.56209    1.000
    Si3485   Si       0.59233    0.07010    0.57910    1.000
    N3486    N        0.59557    0.10860    0.55989    1.000
    Si3487   Si       0.63044    0.11797    0.53493    1.000
    N3488    N        0.58678    0.07890    0.62196    1.000
    N3489    N        0.62011    0.15270    0.51095    1.000
    Si3490   Si       0.61376    0.18697    0.53623    1.000
    Si3491   Si       0.63176    0.16738    0.60836    1.000
    N3492    N        0.59579    0.14302    0.61717    1.000
    N3493    N        0.63389    0.22127    0.52168    1.000
    N3494    N        0.58899    0.24729    0.66385    1.000
    N3495    N        0.57956    0.23475    0.59170    1.000
    N3496    N        0.60269    0.11494    0.68749    1.000
    Si3497   Si       0.61640    0.07388    0.70524    1.000
    Si3498   Si       0.59104    0.04119    0.64392    1.000
    N3499    N        0.58661    0.04846    0.68535    1.000
    N3500    N        0.62757    0.01857    0.63861    1.000
    Si3501   Si       0.58194    0.11342    0.64740    1.000
    Si3502   Si       0.58446    0.20257    0.66627    1.000
    N3503    N        0.58223    0.18221    0.70392    1.000
    N3504    N        0.61456    0.19952    0.63514    1.000
    Si3505   Si       0.60909    0.24246    0.62436    1.000
    Si3506   Si       0.62872    0.25693    0.68745    1.000
    Si3507   Si       0.60358    0.14517    0.71732    1.000
    Si3508   Si       0.59509    0.09536    0.77337    1.000
    Si3509   Si       0.60868    0.02166    0.76237    1.000
    N3510    N        0.58547    0.07854    0.85685    1.000
    N3511    N        0.58308    0.13230    0.75465    1.000
    N3512    N        0.62192    0.19788    0.95563    1.000
    N3513    N        0.57984    0.00862    0.79373    1.000
    N3514    N        0.58374    0.21296    0.82876    1.000
    Si3515   Si       0.61255    0.23568    0.85374    1.000
    N3516    N        0.63206    0.22170    0.75897    1.000
    N3517    N        0.60825    0.14491    0.86473    1.000
    Si3518   Si       0.59768    0.22250    0.99652    1.000
    Si3519   Si       0.60410    0.10366    0.88405    1.000
    N3520    N        0.59725    0.01610    0.97681    1.000
    N3521    N        0.61126    0.08091    0.99294    1.000
    N3522    N        0.61351    0.20709    0.88754    1.000
    Si3523   Si       0.63025    0.22675    0.92384    1.000
    N3524    N        0.58159    0.14322    0.97178    1.000
    N3525    N        0.60706    0.06334    0.74798    1.000
    Si3526   Si       0.62536    0.27310    0.02795    1.000
    N3527    N        0.59572    0.29907    0.07386    1.000
    Si3528   Si       0.58635    0.33391    0.09778    1.000
    N3529    N        0.58998    0.37597    0.08755    1.000
    Si3530   Si       0.63202    0.28280    0.09409    1.000
    N3531    N        0.60202    0.37119    0.99719    1.000
    Si3532   Si       0.59723    0.41336    0.00304    1.000
    N3533    N        0.61453    0.42823    0.04050    1.000
    Si3534   Si       0.62362    0.39666    0.07126    1.000
    N3535    N        0.60383    0.50230    0.02834    1.000
    Si3536   Si       0.63076    0.46889    0.03938    1.000
    Si3537   Si       0.58767    0.31951    0.17521    1.000
    N3538    N        0.61961    0.33372    0.20246    1.000
    N3539    N        0.60527    0.32704    0.13610    1.000
    Si3540   Si       0.62654    0.37621    0.20505    1.000
    N3541    N        0.61829    0.25832    0.12782    1.000
    Si3542   Si       0.59572    0.25990    0.21442    1.000
    N3543    N        0.60282    0.40275    0.17869    1.000
    N3544    N        0.61621    0.46605    0.13719    1.000
    N3545    N        0.60525    0.46765    0.21152    1.000
    Si3546   Si       0.59656    0.50302    0.12705    1.000
    Si3547   Si       0.59925    0.44629    0.17379    1.000
    Si3548   Si       0.61436    0.33714    0.32825    1.000
    Si3549   Si       0.61872    0.28545    0.28300    1.000
    N3550    N        0.59195    0.31611    0.29820    1.000
    N3551    N        0.62482    0.37696    0.31800    1.000
    N3552    N        0.58545    0.27138    0.25357    1.000
    N3553    N        0.60489    0.33072    0.36821    1.000
    N3554    N        0.60938    0.38332    0.24717    1.000
    N3555    N        0.61456    0.43677    0.28625    1.000
    N3556    N        0.62076    0.48304    0.34419    1.000
    Si3557   Si       0.62579    0.46178    0.25114    1.000
    Si3558   Si       0.63353    0.39789    0.28034    1.000
    Si3559   Si       0.59418    0.45436    0.36776    1.000
    Si3560   Si       0.59633    0.40601    0.41716    1.000
    Si3561   Si       0.61386    0.32737    0.41305    1.000
    N3562    N        0.59863    0.36502    0.43244    1.000
    Si3563   Si       0.58450    0.36014    0.47551    1.000
    Si3564   Si       0.58154    0.26102    0.38816    1.000
    N3565    N        0.58020    0.29869    0.41296    1.000
    N3566    N        0.62124    0.25717    0.37652    1.000
    N3567    N        0.62026    0.34357    0.49459    1.000
    N3568    N        0.60710    0.43212    0.45085    1.000
    N3569    N        0.63339    0.49515    0.44508    1.000
    N3570    N        0.61375    0.41785    0.37976    1.000
    Si3571   Si       0.60362    0.36087    0.58368    1.000
    Si3572   Si       0.61835    0.31327    0.52684    1.000
    N3573    N        0.60773    0.28492    0.60896    1.000
    N3574    N        0.58676    0.28678    0.54163    1.000
    N3575    N        0.63292    0.33552    0.56089    1.000
    Si3576   Si       0.57835    0.42496    0.69108    1.000
    N3577    N        0.61556    0.40174    0.57367    1.000
    Si3578   Si       0.60032    0.49286    0.59916    1.000
    Si3579   Si       0.61475    0.48987    0.52421    1.000
    N3580    N        0.59108    0.45254    0.51748    1.000
    Si3581   Si       0.58672    0.43202    0.55666    1.000
    N3582    N        0.62325    0.50379    0.56481    1.000
    N3583    N        0.61871    0.34860    0.62382    1.000
    Si3584   Si       0.61050    0.31987    0.70793    1.000
    Si3585   Si       0.59481    0.36987    0.65171    1.000
    N3586    N        0.60049    0.27659    0.71848    1.000
    N3587    N        0.58235    0.34432    0.68627    1.000
    Si3588   Si       0.62728    0.48620    0.67641    1.000
    N3589    N        0.58093    0.40537    0.73158    1.000
    N3590    N        0.62626    0.49313    0.63354    1.000
    N3591    N        0.59092    0.46701    0.69175    1.000
    N3592    N        0.61253    0.40550    0.66948    1.000
    N3593    N        0.63617    0.29611    0.67199    1.000
    Si3594   Si       0.63399    0.30784    0.63157    1.000
    N3595    N        0.61431    0.34221    0.81452    1.000
    N3596    N        0.60303    0.28020    0.85543    1.000
    Si3597   Si       0.62656    0.31675    0.85255    1.000
    Si3598   Si       0.62881    0.32789    0.77504    1.000
    Si3599   Si       0.61396    0.26153    0.75813    1.000
    N3600    N        0.59478    0.33375    0.74869    1.000
    N3601    N        0.61780    0.41065    0.79632    1.000
    Si3602   Si       0.58807    0.48260    0.85029    1.000
    N3603    N        0.62265    0.47314    0.76982    1.000
    N3604    N        0.62491    0.46102    0.83913    1.000
    Si3605   Si       0.58301    0.48803    0.77685    1.000
    Si3606   Si       0.57967    0.41658    0.77295    1.000
    Si3607   Si       0.59650    0.41884    0.93182    1.000
    N3608    N        0.60946    0.26210    0.93220    1.000
    N3609    N        0.62149    0.35114    0.88111    1.000
    N3610    N        0.59616    0.31646    0.95729    1.000
    Si3611   Si       0.62755    0.28706    0.96547    1.000
    Si3612   Si       0.58002    0.35663    0.89214    1.000
    N3613    N        0.57990    0.37880    0.93146    1.000
    Si3614   Si       0.62031    0.50825    0.92445    1.000
    N3615    N        0.59040    0.50756    0.95795    1.000
    N3616    N        0.60920    0.48742    0.88941    1.000
    N3617    N        0.62412    0.41997    0.89824    1.000
    N3618    N        0.61838    0.43121    0.96716    1.000
    Si3619   Si       0.60711    0.60814    0.03324    1.000
    N3620    N        0.60930    0.52976    0.09344    1.000
    N3621    N        0.59381    0.57246    0.05065    1.000
    Si3622   Si       0.59806    0.57308    0.09739    1.000
    Si3623   Si       0.58540    0.52839    0.05672    1.000
    N3624    N        0.61817    0.64980    0.19853    1.000
    N3625    N        0.61146    0.63532    0.06559    1.000
    Si3626   Si       0.63631    0.63559    0.10237    1.000
    N3627    N        0.61359    0.74296    0.02025    1.000
    N3628    N        0.59408    0.69890    0.06560    1.000
    Si3629   Si       0.63065    0.70881    0.04708    1.000
    N3630    N        0.58416    0.60025    0.23835    1.000
    N3631    N        0.60283    0.52412    0.16377    1.000
    N3632    N        0.59145    0.59271    0.17302    1.000
    N3633    N        0.62345    0.54097    0.22087    1.000
    Si3634   Si       0.62225    0.56210    0.17965    1.000
    Si3635   Si       0.58293    0.62409    0.20323    1.000
    Si3636   Si       0.59561    0.51028    0.20465    1.000
    Si3637   Si       0.61538    0.73984    0.18458    1.000
    N3638    N        0.58282    0.74013    0.21547    1.000
    N3639    N        0.59689    0.64815    0.12633    1.000
    Si3640   Si       0.62304    0.66824    0.15913    1.000
    N3641    N        0.60764    0.70672    0.15681    1.000
    N3642    N        0.63560    0.59171    0.10811    1.000
    Si3643   Si       0.58074    0.66114    0.08638    1.000
    Si3644   Si       0.60814    0.62258    0.33104    1.000
    Si3645   Si       0.60172    0.56385    0.36736    1.000
    N3646    N        0.60377    0.60652    0.37142    1.000
    N3647    N        0.58196    0.60128    0.30486    1.000
    Si3648   Si       0.58211    0.62824    0.27262    1.000
    N3649    N        0.61560    0.65469    0.26586    1.000
    Si3650   Si       0.60903    0.68789    0.29510    1.000
    N3651    N        0.59211    0.66228    0.32873    1.000
    Si3652   Si       0.59210    0.74251    0.26043    1.000
    N3653    N        0.62986    0.72285    0.27252    1.000
    Si3654   Si       0.63735    0.69780    0.36769    1.000
    N3655    N        0.57999    0.70670    0.47298    1.000
    N3656    N        0.61464    0.53506    0.39583    1.000
    N3657    N        0.61063    0.61554    0.43527    1.000
    Si3658   Si       0.63307    0.62120    0.39867    1.000
    Si3659   Si       0.63137    0.59502    0.46903    1.000
    Si3660   Si       0.59917    0.50922    0.42478    1.000
    N3661    N        0.59817    0.58553    0.49578    1.000
    Si3662   Si       0.58384    0.75487    0.36979    1.000
    Si3663   Si       0.61992    0.72279    0.47203    1.000
    N3664    N        0.62455    0.75434    0.44473    1.000
    N3665    N        0.59783    0.71306    0.37283    1.000
    Si3666   Si       0.58782    0.54341    0.49582    1.000
    Si3667   Si       0.60037    0.61105    0.53000    1.000
    N3668    N        0.62739    0.52962    0.50857    1.000
    N3669    N        0.62600    0.58300    0.55505    1.000
    Si3670   Si       0.62846    0.59974    0.59416    1.000
    N3671    N        0.59601    0.75870    0.64572    1.000
    Si3672   Si       0.60834    0.73406    0.55429    1.000
    N3673    N        0.60364    0.70771    0.58912    1.000
    Si3674   Si       0.60840    0.66960    0.60816    1.000
    N3675    N        0.60373    0.65070    0.50878    1.000
    N3676    N        0.62802    0.72741    0.51490    1.000
    Si3677   Si       0.58273    0.66526    0.66579    1.000
    N3678    N        0.60228    0.58015    0.62190    1.000
    N3679    N        0.58915    0.53364    0.67692    1.000
    N3680    N        0.61326    0.57124    0.73634    1.000
    Si3681   Si       0.62312    0.54991    0.69809    1.000
    N3682    N        0.61446    0.68906    0.64755    1.000
    Si3683   Si       0.61933    0.72747    0.62553    1.000
    Si3684   Si       0.58452    0.71525    0.72447    1.000
    N3685    N        0.61183    0.74906    0.71785    1.000
    Si3686   Si       0.60170    0.63857    0.72850    1.000
    N3687    N        0.60834    0.68165    0.73857    1.000
    Si3688   Si       0.59436    0.60485    0.79600    1.000
    N3689    N        0.59064    0.60716    0.83953    1.000
    Si3690   Si       0.63042    0.61161    0.85730    1.000
    N3691    N        0.63723    0.60280    0.79117    1.000
    N3692    N        0.58687    0.71800    0.82302    1.000
    Si3693   Si       0.61319    0.75151    0.81377    1.000
    N3694    N        0.61876    0.62193    0.89823    1.000
    Si3695   Si       0.60155    0.58422    0.91947    1.000
    N3696    N        0.60153    0.58482    0.96095    1.000
    N3697    N        0.62714    0.54989    0.90757    1.000
    Si3698   Si       0.60217    0.52691    0.99411    1.000
    Si3699   Si       0.59062    0.65526    0.89981    1.000
    Si3700   Si       0.62037    0.72022    0.91825    1.000
    N3701    N        0.61847    0.71349    0.95862    1.000
    N3702    N        0.63431    0.65156    0.96190    1.000
    Si3703   Si       0.59259    0.65159    0.97552    1.000
    N3704    N        0.58851    0.74311    0.90081    1.000
    Si3705   Si       0.58984    0.72506    0.98912    1.000
    N3706    N        0.61941    0.69072    0.88708    1.000
    Si3707   Si       0.57765    0.70897    0.86640    1.000
    N3708    N        0.60885    0.81601    0.09518    1.000
    Si3709   Si       0.62760    0.78428    0.01814    1.000
    N3710    N        0.58892    0.80522    0.01671    1.000
    Si3711   Si       0.60275    0.85649    0.07551    1.000
    Si3712   Si       0.58496    0.84805    0.00600    1.000
    N3713    N        0.63593    0.85052    0.04791    1.000
    Si3714   Si       0.59391    0.78478    0.11923    1.000
    N3715    N        0.62117    0.88722    0.10055    1.000
    Si3716   Si       0.61362    0.92916    0.09207    1.000
    N3717    N        0.61251    0.93512    0.04997    1.000
    Si3718   Si       0.57932    0.91381    0.03276    1.000
    N3719    N        0.61554    0.84629    0.16013    1.000
    N3720    N        0.61870    0.77508    0.15781    1.000
    Si3721   Si       0.63285    0.88215    0.14444    1.000
    Si3722   Si       0.58201    0.93300    0.24227    1.000
    N3723    N        0.61766    0.91909    0.22328    1.000
    N3724    N        0.62931    0.98780    0.24222    1.000
    Si3725   Si       0.60904    0.94216    0.18611    1.000
    N3726    N        0.60288    0.91092    0.15701    1.000
    N3727    N        0.62739    0.97987    0.17195    1.000
    N3728    N        0.61124    0.82509    0.31989    1.000
    Si3729   Si       0.61419    0.81604    0.27786    1.000
    Si3730   Si       0.59254    0.85723    0.34530    1.000
    N3731    N        0.58449    0.78298    0.27172    1.000
    N3732    N        0.60607    0.85452    0.25469    1.000
    N3733    N        0.58533    0.90079    0.33373    1.000
    Si3734   Si       0.61626    0.92015    0.30795    1.000
    Si3735   Si       0.60871    0.98762    0.27772    1.000
    N3736    N        0.59348    0.94717    0.28102    1.000
    N3737    N        0.63404    0.93976    0.34264    1.000
    N3738    N        0.63553    0.99710    0.31018    1.000
    Si3739   Si       0.63614    0.88567    0.24654    1.000
    N3740    N        0.62168    0.77698    0.37576    1.000
    N3741    N        0.59674    0.82234    0.42168    1.000
    Si3742   Si       0.60484    0.79338    0.45407    1.000
    N3743    N        0.62157    0.87291    0.37814    1.000
    Si3744   Si       0.61649    0.86071    0.41907    1.000
    Si3745   Si       0.58565    0.87921    0.48970    1.000
    N3746    N        0.63247    0.82090    0.47441    1.000
    N3747    N        0.60095    0.88855    0.44944    1.000
    Si3748   Si       0.61357    0.91788    0.37433    1.000
    Si3749   Si       0.61798    0.92871    0.44749    1.000
    N3750    N        0.58117    0.95249    0.45111    1.000
    N3751    N        0.60680    0.00667    0.40670    1.000
    Si3752   Si       0.57619    0.97321    0.41120    1.000
    Si3753   Si       0.59935    0.80073    0.58168    1.000
    N3754    N        0.59544    0.81468    0.53882    1.000
    N3755    N        0.61707    0.82919    0.60848    1.000
    N3756    N        0.62023    0.87264    0.51648    1.000
    Si3757   Si       0.63016    0.82775    0.51790    1.000
    N3758    N        0.62589    0.76712    0.57760    1.000
    Si3759   Si       0.59706    0.86659    0.61987    1.000
    N3760    N        0.61388    0.90048    0.59611    1.000
    N3761    N        0.60547    0.96795    0.58007    1.000
    N3762    N        0.60430    0.99105    0.50877    1.000
    Si3763   Si       0.60575    0.99913    0.54986    1.000
    Si3764   Si       0.58047    0.93267    0.59218    1.000
    Si3765   Si       0.62830    0.97946    0.61709    1.000
    Si3766   Si       0.59143    0.83285    0.72714    1.000
    Si3767   Si       0.61103    0.77564    0.68386    1.000
    N3768    N        0.59289    0.87567    0.72655    1.000
    N3769    N        0.59034    0.81123    0.69093    1.000
    N3770    N        0.59722    0.88363    0.66112    1.000
    N3771    N        0.58650    0.93216    0.69849    1.000
    N3772    N        0.61469    0.95179    0.64656    1.000
    Si3773   Si       0.62129    0.91734    0.67413    1.000
    N3774    N        0.59167    0.99692    0.73251    1.000
    Si3775   Si       0.62208    0.90476    0.74140    1.000
    Si3776   Si       0.59777    0.82294    0.78913    1.000
    N3777    N        0.62713    0.84536    0.81522    1.000
    N3778    N        0.58511    0.78391    0.80747    1.000
    Si3779   Si       0.59810    0.86831    0.83524    1.000
    N3780    N        0.63004    0.76726    0.85160    1.000
    N3781    N        0.62346    0.81870    0.75297    1.000
    N3782    N        0.59059    0.91000    0.82212    1.000
    Si3783   Si       0.62580    0.92662    0.80470    1.000
    N3784    N        0.60142    0.93472    0.76327    1.000
    Si3785   Si       0.58916    0.98397    0.82779    1.000
    N3786    N        0.63063    0.96943    0.81686    1.000
    N3787    N        0.60531    0.00516    0.86359    1.000
    N3788    N        0.58915    0.86523    0.87763    1.000
    N3789    N        0.62118    0.85006    0.98112    1.000
    N3790    N        0.60743    0.80880    0.92050    1.000
    Si3791   Si       0.60737    0.77984    0.88737    1.000
    Si3792   Si       0.63363    0.82130    0.95102    1.000
    N3793    N        0.57362    0.91209    0.92551    1.000
    N3794    N        0.60471    0.97325    0.93037    1.000
    N3795    N        0.59349    0.91224    0.99331    1.000
    Si3796   Si       0.61319    0.92990    0.92213    1.000
    Si3797   Si       0.63419    0.99761    0.96616    1.000
    N3798    N        0.67048    0.06884    0.10438    1.000
    N3799    N        0.66726    0.07762    0.03307    1.000
    Si3800   Si       0.67163    0.03265    0.02654    1.000
    Si3801   Si       0.68254    0.09624    0.07189    1.000
    N3802    N        0.66710    0.13576    0.07144    1.000
    N3803    N        0.66305    0.19388    0.02699    1.000
    Si3804   Si       0.66508    0.16349    0.10401    1.000
    Si3805   Si       0.66381    0.21871    0.06139    1.000
    Si3806   Si       0.66964    0.15129    0.02979    1.000
    N3807    N        0.64529    0.20135    0.09536    1.000
    N3808    N        0.64748    0.25834    0.06078    1.000
    N3809    N        0.66230    0.03516    0.20924    1.000
    N3810    N        0.66188    0.10232    0.21474    1.000
    Si3811   Si       0.66777    0.07006    0.18695    1.000
    Si3812   Si       0.64615    0.22553    0.13187    1.000
    N3813    N        0.63918    0.14714    0.13424    1.000
    N3814    N        0.64825    0.20785    0.17071    1.000
    N3815    N        0.69098    0.15481    0.18400    1.000
    N3816    N        0.68532    0.24608    0.13223    1.000
    Si3817   Si       0.65043    0.16384    0.17270    1.000
    Si3818   Si       0.66801    0.23255    0.20179    1.000
    N3819    N        0.66345    0.20276    0.23353    1.000
    N3820    N        0.67132    0.06930    0.29669    1.000
    Si3821   Si       0.64892    0.03652    0.31987    1.000
    N3822    N        0.64861    0.12202    0.33806    1.000
    N3823    N        0.64491    0.03656    0.36337    1.000
    Si3824   Si       0.68856    0.11879    0.35611    1.000
    Si3825   Si       0.63962    0.09683    0.30361    1.000
    Si3826   Si       0.69621    0.03463    0.37384    1.000
    N3827    N        0.68463    0.21171    0.29472    1.000
    N3828    N        0.67582    0.24617    0.35160    1.000
    Si3829   Si       0.64439    0.22027    0.36705    1.000
    Si3830   Si       0.64018    0.20386    0.29817    1.000
    N3831    N        0.67589    0.09188    0.45864    1.000
    N3832    N        0.68289    0.03629    0.41490    1.000
    Si3833   Si       0.68397    0.13121    0.47424    1.000
    N3834    N        0.69376    0.25558    0.41328    1.000
    N3835    N        0.68694    0.14180    0.39279    1.000
    Si3836   Si       0.64515    0.24926    0.49052    1.000
    N3837    N        0.65282    0.20132    0.40268    1.000
    N3838    N        0.65367    0.15464    0.45334    1.000
    Si3839   Si       0.66086    0.23436    0.43123    1.000
    N3840    N        0.67809    0.22960    0.47140    1.000
    Si3841   Si       0.65104    0.15866    0.41099    1.000
    Si3842   Si       0.65179    0.05237    0.53742    1.000
    N3843    N        0.68077    0.06165    0.56699    1.000
    N3844    N        0.66536    0.02003    0.51342    1.000
    N3845    N        0.66106    0.12409    0.56479    1.000
    N3846    N        0.64041    0.08425    0.51299    1.000
    Si3847   Si       0.66263    0.22102    0.55367    1.000
    Si3848   Si       0.68441    0.16163    0.55407    1.000
    N3849    N        0.64455    0.18472    0.57074    1.000
    N3850    N        0.66960    0.17013    0.63063    1.000
    N3851    N        0.68725    0.04491    0.66815    1.000
    Si3852   Si       0.67619    0.12609    0.72102    1.000
    N3853    N        0.65914    0.08560    0.71188    1.000
    Si3854   Si       0.69248    0.05549    0.71068    1.000
    N3855    N        0.64253    0.21664    0.68903    1.000
    Si3856   Si       0.65128    0.19722    0.72554    1.000
    N3857    N        0.65556    0.24479    0.62913    1.000
    N3858    N        0.64454    0.15528    0.72643    1.000
    Si3859   Si       0.66082    0.20783    0.65089    1.000
    Si3860   Si       0.69704    0.10248    0.57660    1.000
    N3861    N        0.69760    0.01954    0.73399    1.000
    N3862    N        0.69497    0.19585    0.72726    1.000
    Si3863   Si       0.66822    0.00928    0.65386    1.000
    Si3864   Si       0.65669    0.06386    0.78843    1.000
    Si3865   Si       0.67632    0.08155    0.85756    1.000
    N3866    N        0.68126    0.11822    0.83201    1.000
    N3867    N        0.65210    0.05456    0.83119    1.000
    N3868    N        0.64752    0.02075    0.78091    1.000
    N3869    N        0.69559    0.12656    0.76120    1.000
    Si3870   Si       0.66692    0.13379    0.79377    1.000
    Si3871   Si       0.65515    0.21987    0.79693    1.000
    N3872    N        0.65264    0.23595    0.83656    1.000
    N3873    N        0.66899    0.17820    0.79364    1.000
    N3874    N        0.69168    0.23591    0.77822    1.000
    Si3875   Si       0.68036    0.22188    0.86866    1.000
    N3876    N        0.67298    0.17751    0.86801    1.000
    Si3877   Si       0.67009    0.11090    0.91888    1.000
    N3878    N        0.66631    0.02778    0.98408    1.000
    N3879    N        0.66860    0.08565    0.95409    1.000
    Si3880   Si       0.67848    0.04330    0.94482    1.000
    N3881    N        0.64516    0.08997    0.88986    1.000
    Si3882   Si       0.65381    0.09047    0.99278    1.000
    N3883    N        0.65211    0.01479    0.92667    1.000
    Si3884   Si       0.63557    0.16794    0.88894    1.000
    N3885    N        0.64392    0.13548    0.99662    1.000
    Si3886   Si       0.64888    0.16574    0.96403    1.000
    Si3887   Si       0.67187    0.22099    0.99555    1.000
    N3888    N        0.68346    0.19276    0.96372    1.000
    N3889    N        0.66955    0.23531    0.90761    1.000
    N3890    N        0.64759    0.14687    0.92470    1.000
    N3891    N        0.63695    0.10360    0.78621    1.000
    N3892    N        0.63494    0.24814    0.99264    1.000
    Si3893   Si       0.65239    0.00903    0.82900    1.000
    Si3894   Si       0.67697    0.34112    0.06851    1.000
    N3895    N        0.66138    0.31369    0.10071    1.000
    N3896    N        0.64586    0.36590    0.05024    1.000
    Si3897   Si       0.63806    0.35185    0.01000    1.000
    N3898    N        0.63717    0.30923    0.00619    1.000
    Si3899   Si       0.68649    0.39207    0.11586    1.000
    N3900    N        0.65269    0.41398    0.09744    1.000
    Si3901   Si       0.65093    0.45488    0.11359    1.000
    N3902    N        0.65947    0.47631    0.00840    1.000
    N3903    N        0.64738    0.47924    0.07661    1.000
    N3904    N        0.63853    0.26471    0.21229    1.000
    N3905    N        0.66640    0.36598    0.14222    1.000
    N3906    N        0.67108    0.30658    0.17195    1.000
    Si3907   Si       0.64844    0.32683    0.14168    1.000
    Si3908   Si       0.65135    0.30668    0.21246    1.000
    N3909    N        0.66992    0.38153    0.20569    1.000
    Si3910   Si       0.69668    0.37222    0.17253    1.000
    N3911    N        0.66473    0.44396    0.24444    1.000
    Si3912   Si       0.69582    0.47318    0.23407    1.000
    N3913    N        0.68680    0.46647    0.13366    1.000
    Si3914   Si       0.68541    0.40481    0.23742    1.000
    Si3915   Si       0.67784    0.31307    0.29526    1.000
    N3916    N        0.65254    0.30663    0.25918    1.000
    Si3917   Si       0.65363    0.28254    0.35997    1.000
    N3918    N        0.64606    0.30134    0.32128    1.000
    N3919    N        0.67505    0.38724    0.27448    1.000
    N3920    N        0.67908    0.49378    0.33127    1.000
    N3921    N        0.66404    0.43168    0.32591    1.000
    Si3922   Si       0.64395    0.47181    0.31059    1.000
    Si3923   Si       0.64191    0.40110    0.35060    1.000
    Si3924   Si       0.68744    0.30010    0.41984    1.000
    N3925    N        0.67892    0.31166    0.37970    1.000
    N3926    N        0.64974    0.31995    0.43760    1.000
    Si3927   Si       0.65828    0.32968    0.47887    1.000
    N3928    N        0.69404    0.35561    0.48693    1.000
    Si3929   Si       0.64342    0.45505    0.46140    1.000
    N3930    N        0.67498    0.38289    0.37498    1.000
    Si3931   Si       0.68425    0.41497    0.40279    1.000
    N3932    N        0.67648    0.43571    0.44235    1.000
    N3933    N        0.63790    0.49824    0.27455    1.000
    Si3934   Si       0.67047    0.33636    0.58082    1.000
    N3935    N        0.67883    0.37610    0.59446    1.000
    N3936    N        0.65322    0.28998    0.50749    1.000
    Si3937   Si       0.68731    0.28557    0.53295    1.000
    Si3938   Si       0.68464    0.26834    0.60519    1.000
    N3939    N        0.67306    0.30873    0.61450    1.000
    N3940    N        0.67220    0.26008    0.56519    1.000
    N3941    N        0.67298    0.41106    0.53545    1.000
    Si3942   Si       0.65779    0.41031    0.57408    1.000
    N3943    N        0.66549    0.44535    0.59836    1.000
    Si3944   Si       0.68546    0.45141    0.52139    1.000
    N3945    N        0.65169    0.47227    0.50307    1.000
    N3946    N        0.67350    0.26846    0.71617    1.000
    Si3947   Si       0.67599    0.36538    0.73702    1.000
    N3948    N        0.65219    0.33596    0.71791    1.000
    Si3949   Si       0.67139    0.30527    0.69389    1.000
    N3950    N        0.69135    0.47562    0.73982    1.000
    Si3951   Si       0.66492    0.47358    0.63067    1.000
    N3952    N        0.66279    0.46166    0.67467    1.000
    Si3953   Si       0.65508    0.41745    0.68080    1.000
    N3954    N        0.68469    0.39793    0.65801    1.000
    N3955    N        0.66692    0.40711    0.72146    1.000
    N3956    N        0.65920    0.35869    0.77760    1.000
    N3957    N        0.66951    0.31352    0.85281    1.000
    Si3958   Si       0.68120    0.27434    0.75955    1.000
    N3959    N        0.64382    0.28741    0.77275    1.000
    Si3960   Si       0.64077    0.37693    0.81178    1.000
    N3961    N        0.66367    0.39280    0.84523    1.000
    N3962    N        0.68182    0.44715    0.80473    1.000
    Si3963   Si       0.69205    0.42549    0.84016    1.000
    Si3964   Si       0.65219    0.49445    0.74766    1.000
    Si3965   Si       0.63868    0.44867    0.80003    1.000
    N3966    N        0.67561    0.35677    0.98534    1.000
    N3967    N        0.67282    0.28958    0.95596    1.000
    N3968    N        0.68344    0.38213    0.91343    1.000
    Si3969   Si       0.68468    0.31199    0.99360    1.000
    Si3970   Si       0.69295    0.27021    0.92385    1.000
    Si3971   Si       0.69536    0.38353    0.95849    1.000
    Si3972   Si       0.65032    0.38636    0.88619    1.000
    Si3973   Si       0.65674    0.45400    0.97048    1.000
    N3974    N        0.68622    0.42448    0.96919    1.000
    N3975    N        0.68321    0.44873    0.87663    1.000
    Si3976   Si       0.64015    0.45742    0.88012    1.000
    N3977    N        0.65537    0.48778    0.94085    1.000
    N3978    N        0.68399    0.53003    0.04880    1.000
    Si3979   Si       0.65507    0.52020    0.07964    1.000
    N3980    N        0.64571    0.60898    0.01355    1.000
    N3981    N        0.67527    0.53781    0.11318    1.000
    Si3982   Si       0.67562    0.51816    0.00781    1.000
    N3983    N        0.65682    0.65208    0.13871    1.000
    Si3984   Si       0.66652    0.64296    0.03542    1.000
    N3985    N        0.67121    0.65362    0.07703    1.000
    N3986    N        0.66160    0.72255    0.07474    1.000
    N3987    N        0.64884    0.68056    0.02045    1.000
    Si3988   Si       0.68935    0.69080    0.08371    1.000
    Si3989   Si       0.68632    0.75436    0.05482    1.000
    Si3990   Si       0.67143    0.57838    0.12689    1.000
    N3991    N        0.66253    0.57975    0.17119    1.000
    N3992    N        0.66810    0.61716    0.23142    1.000
    Si3993   Si       0.68899    0.60410    0.19555    1.000
    N3994    N        0.68557    0.51305    0.22831    1.000
    N3995    N        0.67568    0.68116    0.24436    1.000
    Si3996   Si       0.64385    0.65156    0.23484    1.000
    Si3997   Si       0.66390    0.72217    0.24385    1.000
    N3998    N        0.65405    0.73668    0.20466    1.000
    Si3999   Si       0.70030    0.64580    0.13397    1.000
    N4000    N        0.67015    0.56335    0.28129    1.000
    Si4001   Si       0.66799    0.57820    0.32246    1.000
    N4002    N        0.64979    0.61863    0.31950    1.000
    Si4003   Si       0.64608    0.51480    0.36154    1.000
    Si4004   Si       0.65364    0.53058    0.25136    1.000
    N4005    N        0.63651    0.55305    0.33933    1.000
    Si4006   Si       0.67763    0.65573    0.31686    1.000
    Si4007   Si       0.65845    0.73044    0.30419    1.000
    N4008    N        0.68858    0.74620    0.27238    1.000
    Si4009   Si       0.65315    0.51958    0.47599    1.000
    N4010    N        0.66283    0.62031    0.48646    1.000
    N4011    N        0.65064    0.55889    0.45236    1.000
    N4012    N        0.66725    0.59561    0.39288    1.000
    N4013    N        0.67944    0.51902    0.38988    1.000
    Si4014   Si       0.67468    0.55821    0.41447    1.000
    Si4015   Si       0.64372    0.66042    0.49791    1.000
    N4016    N        0.66519    0.71890    0.39679    1.000
    N4017    N        0.64494    0.68633    0.46221    1.000
    N4018    N        0.68879    0.74528    0.48657    1.000
    Si4019   Si       0.66661    0.67959    0.42339    1.000
    N4020    N        0.64817    0.69280    0.32595    1.000
    N4021    N        0.64011    0.66378    0.39282    1.000
    Si4022   Si       0.64838    0.75829    0.40740    1.000
    N4023    N        0.66998    0.59149    0.60852    1.000
    N4024    N        0.68206    0.54734    0.55444    1.000
    Si4025   Si       0.63868    0.54177    0.55049    1.000
    Si4026   Si       0.65074    0.67662    0.73902    1.000
    N4027    N        0.68566    0.74075    0.55573    1.000
    Si4028   Si       0.67038    0.72172    0.52130    1.000
    N4029    N        0.66848    0.67827    0.52923    1.000
    Si4030   Si       0.67392    0.65460    0.56796    1.000
    N4031    N        0.63568    0.64472    0.58842    1.000
    N4032    N        0.69761    0.61872    0.67616    1.000
    N4033    N        0.65321    0.57402    0.68052    1.000
    Si4034   Si       0.68129    0.58492    0.64905    1.000
    Si4035   Si       0.67094    0.60627    0.70729    1.000
    N4036    N        0.68288    0.58785    0.74482    1.000
    N4037    N        0.63964    0.51198    0.70976    1.000
    N4038    N        0.66326    0.73047    0.62077    1.000
    N4039    N        0.64330    0.63668    0.71819    1.000
    N4040    N        0.66946    0.71155    0.72415    1.000
    Si4041   Si       0.64847    0.74627    0.74003    1.000
    Si4042   Si       0.69487    0.58399    0.57355    1.000
    N4043    N        0.65646    0.53135    0.77518    1.000
    Si4044   Si       0.64677    0.57139    0.76315    1.000
    N4045    N        0.66366    0.58384    0.86166    1.000
    Si4046   Si       0.66769    0.63220    0.80224    1.000
    N4047    N        0.64331    0.74558    0.78416    1.000
    N4048    N        0.67130    0.66438    0.77407    1.000
    N4049    N        0.65296    0.64651    0.84168    1.000
    N4050    N        0.67875    0.71477    0.85044    1.000
    Si4051   Si       0.65787    0.67919    0.86925    1.000
    Si4052   Si       0.66811    0.75283    0.87042    1.000
    N4053    N        0.66422    0.59417    0.93916    1.000
    Si4054   Si       0.66612    0.56884    0.90398    1.000
    Si4055   Si       0.64254    0.58268    0.97720    1.000
    N4056    N        0.64295    0.54230    0.99182    1.000
    Si4057   Si       0.65068    0.63478    0.92655    1.000
    N4058    N        0.68783    0.71206    0.96896    1.000
    N4059    N        0.65573    0.74604    0.91096    1.000
    Si4060   Si       0.69158    0.74194    0.93715    1.000
    N4061    N        0.67556    0.66301    0.90626    1.000
    Si4062   Si       0.65086    0.68956    0.97807    1.000
    N4063    N        0.69362    0.53591    0.90556    1.000
    Si4064   Si       0.68502    0.76059    0.78391    1.000
    N4065    N        0.65372    0.78486    0.05216    1.000
    Si4066   Si       0.65582    0.85654    0.00830    1.000
    Si4067   Si       0.65225    0.82006    0.07890    1.000
    N4068    N        0.69196    0.83264    0.00744    1.000
    N4069    N        0.69224    0.84421    0.07505    1.000
    N4070    N        0.66670    0.80903    0.12050    1.000
    N4071    N        0.67796    0.95369    0.05769    1.000
    Si4072   Si       0.68688    0.96183    0.10001    1.000
    N4073    N        0.66854    0.89809    0.00647    1.000
    Si4074   Si       0.64163    0.96738    0.03819    1.000
    N4075    N        0.64152    0.95943    0.10708    1.000
    N4076    N        0.63809    0.00873    0.04757    1.000
    Si4077   Si       0.64236    0.81271    0.15811    1.000
    N4078    N        0.67423    0.87405    0.14327    1.000
    N4079    N        0.67102    0.80389    0.18991    1.000
    N4080    N        0.66896    0.86852    0.22348    1.000
    Si4081   Si       0.67619    0.82626    0.22492    1.000
    Si4082   Si       0.68755    0.76289    0.18990    1.000
    Si4083   Si       0.64039    0.99392    0.13190    1.000
    N4084    N        0.68573    0.00358    0.13031    1.000
    N4085    N        0.69673    0.94228    0.13875    1.000
    N4086    N        0.67003    0.83424    0.35229    1.000
    Si4087   Si       0.68086    0.78756    0.28451    1.000
    N4088    N        0.65983    0.77143    0.32014    1.000
    N4089    N        0.65517    0.81144    0.26106    1.000
    Si4090   Si       0.64067    0.80217    0.34422    1.000
    Si4091   Si       0.66185    0.97464    0.33745    1.000
    N4092    N        0.64830    0.90280    0.28414    1.000
    Si4093   Si       0.69062    0.91446    0.28996    1.000
    N4094    N        0.69290    0.95188    0.31340    1.000
    N4095    N        0.66162    0.85548    0.42472    1.000
    Si4096   Si       0.67025    0.84208    0.46422    1.000
    Si4097   Si       0.66715    0.86650    0.38203    1.000
    N4098    N        0.68980    0.77397    0.41095    1.000
    N4099    N        0.64823    0.92607    0.47739    1.000
    N4100    N        0.63918    0.92804    0.40935    1.000
    Si4101   Si       0.67771    0.95885    0.46765    1.000
    Si4102   Si       0.65372    0.00500    0.41012    1.000
    Si4103   Si       0.67934    0.93791    0.39507    1.000
    N4104    N        0.67293    0.97814    0.38034    1.000
    N4105    N        0.65148    0.98743    0.45082    1.000
    N4106    N        0.69260    0.89937    0.37481    1.000
    N4107    N        0.66763    0.80854    0.52683    1.000
    N4108    N        0.66419    0.85736    0.57204    1.000
    N4109    N        0.68785    0.79431    0.60683    1.000
    Si4110   Si       0.66192    0.82984    0.60766    1.000
    Si4111   Si       0.68776    0.84565    0.53853    1.000
    N4112    N        0.68657    0.86738    0.49930    1.000
    N4113    N        0.68448    0.91270    0.60809    1.000
    N4114    N        0.66753    0.91855    0.54208    1.000
    Si4115   Si       0.65413    0.90154    0.57872    1.000
    Si4116   Si       0.65297    0.89801    0.50855    1.000
    N4117    N        0.67067    0.98059    0.61620    1.000
    N4118    N        0.67907    0.84075    0.70706    1.000
    N4119    N        0.68150    0.84971    0.64073    1.000
    N4120    N        0.65312    0.78731    0.67677    1.000
    Si4121   Si       0.68241    0.81832    0.67042    1.000
    N4122    N        0.68113    0.77678    0.74273    1.000
    Si4123   Si       0.66450    0.82011    0.74445    1.000
    N4124    N        0.67094    0.98042    0.68639    1.000
    N4125    N        0.64921    0.90837    0.70474    1.000
    Si4126   Si       0.68622    0.88560    0.70310    1.000
    Si4127   Si       0.69500    0.78722    0.50116    1.000
    Si4128   Si       0.70022    0.97897    0.71747    1.000
    Si4129   Si       0.66854    0.75960    0.59025    1.000
    Si4130   Si       0.66430    0.86995    0.80846    1.000
    N4131    N        0.68214    0.84368    0.77590    1.000
    Si4132   Si       0.63746    0.92048    0.98755    1.000
    N4133    N        0.65239    0.90599    0.83401    1.000
    N4134    N        0.65140    0.90191    0.77406    1.000
    N4135    N        0.66957    0.99732    0.86764    1.000
    Si4136   Si       0.68966    0.92022    0.76786    1.000
    N4137    N        0.69007    0.96170    0.75780    1.000
    Si4138   Si       0.68790    0.00333    0.77293    1.000
    Si4139   Si       0.67365    0.92267    0.86792    1.000
    Si4140   Si       0.63493    0.98672    0.89492    1.000
    N4141    N        0.66797    0.83615    0.92938    1.000
    N4142    N        0.64731    0.79020    0.98158    1.000
    Si4143   Si       0.69176    0.79269    0.99003    1.000
    Si4144   Si       0.67684    0.88123    0.93326    1.000
    N4145    N        0.64197    0.96338    0.99487    1.000
    N4146    N        0.64425    0.90843    0.94527    1.000
    N4147    N        0.64054    0.94201    0.88873    1.000
    N4148    N        0.69186    0.89275    0.89466    1.000
    N4149    N        0.72536    0.09168    0.06533    1.000
    N4150    N        0.74328    0.03885    0.10617    1.000
    Si4151   Si       0.74371    0.02994    0.01726    1.000
    Si4152   Si       0.73061    0.10124    0.02395    1.000
    N4153    N        0.70899    0.00860    0.03527    1.000
    N4154    N        0.72478    0.06529    0.99984    1.000
    N4155    N        0.70848    0.13610    0.01643    1.000
    N4156    N        0.70834    0.24357    0.00759    1.000
    Si4157   Si       0.71478    0.21990    0.11375    1.000
    Si4158   Si       0.73361    0.23374    0.04309    1.000
    N4159    N        0.70573    0.21884    0.07159    1.000
    Si4160   Si       0.73899    0.24926    0.22151    1.000
    Si4161   Si       0.70233    0.04284    0.12381    1.000
    N4162    N        0.73366    0.11110    0.21194    1.000
    Si4163   Si       0.74011    0.09284    0.17058    1.000
    N4164    N        0.74195    0.12193    0.13929    1.000
    N4165    N        0.73521    0.03966    0.21903    1.000
    N4166    N        0.70585    0.06610    0.16276    1.000
    Si4167   Si       0.69475    0.12863    0.21818    1.000
    Si4168   Si       0.69943    0.01690    0.22202    1.000
    N4169    N        0.70199    0.17790    0.12193    1.000
    Si4170   Si       0.72285    0.15786    0.15508    1.000
    N4171    N        0.70486    0.25439    0.19516    1.000
    Si4172   Si       0.74683    0.13227    0.24683    1.000
    Si4173   Si       0.71026    0.05768    0.31521    1.000
    N4174    N        0.74807    0.05405    0.30090    1.000
    N4175    N        0.70249    0.07661    0.35536    1.000
    N4176    N        0.69513    0.01879    0.32607    1.000
    N4177    N        0.72128    0.14332    0.34310    1.000
    Si4178   Si       0.70203    0.24492    0.31596    1.000
    N4179    N        0.74215    0.24349    0.33158    1.000
    N4180    N        0.73377    0.22008    0.25204    1.000
    N4181    N        0.70700    0.15229    0.25258    1.000
    Si4182   Si       0.69963    0.19407    0.25808    1.000
    Si4183   Si       0.71327    0.25579    0.46865    1.000
    N4184    N        0.73965    0.02818    0.37865    1.000
    N4185    N        0.71743    0.03030    0.47575    1.000
    N4186    N        0.74172    0.07361    0.43658    1.000
    Si4187   Si       0.70126    0.05992    0.44658    1.000
    Si4188   Si       0.74945    0.11692    0.43851    1.000
    Si4189   Si       0.72603    0.16024    0.38406    1.000
    N4190    N        0.73916    0.20081    0.38176    1.000
    N4191    N        0.72636    0.14306    0.46055    1.000
    N4192    N        0.74769    0.23888    0.44717    1.000
    Si4193   Si       0.73553    0.23967    0.40455    1.000
    Si4194   Si       0.71865    0.04421    0.57570    1.000
    N4195    N        0.74017    0.08225    0.56323    1.000
    N4196    N        0.72698    0.03324    0.61778    1.000
    N4197    N        0.73320    0.01416    0.54618    1.000
    Si4198   Si       0.71997    0.17736    0.68635    1.000
    N4199    N        0.74892    0.20313    0.50031    1.000
    N4200    N        0.71786    0.14189    0.57846    1.000
    Si4201   Si       0.73386    0.16163    0.50161    1.000
    Si4202   Si       0.73667    0.22775    0.53636    1.000
    N4203    N        0.70306    0.20323    0.55388    1.000
    N4204    N        0.72604    0.25802    0.61408    1.000
    N4205    N        0.71758    0.26032    0.51289    1.000
    N4206    N        0.70053    0.10234    0.62398    1.000
    N4207    N        0.72583    0.08040    0.72608    1.000
    Si4208   Si       0.71596    0.06695    0.64356    1.000
    Si4209   Si       0.74371    0.10780    0.69683    1.000
    N4210    N        0.75269    0.08129    0.66470    1.000
    N4211    N        0.73486    0.16829    0.64346    1.000
    Si4212   Si       0.70204    0.23517    0.70724    1.000
    N4213    N        0.70856    0.13639    0.69582    1.000
    N4214    N        0.70329    0.21531    0.66706    1.000
    N4215    N        0.74158    0.25500    0.71045    1.000
    Si4216   Si       0.70554    0.14557    0.62150    1.000
    Si4217   Si       0.73321    0.21887    0.63349    1.000
    N4218    N        0.69340    0.15094    0.51198    1.000
    Si4219   Si       0.70721    0.00737    0.51120    1.000
    N4220    N        0.71381    0.05778    0.85600    1.000
    Si4221   Si       0.72208    0.09563    0.76744    1.000
    Si4222   Si       0.72317    0.04613    0.81590    1.000
    N4223    N        0.69949    0.06359    0.78309    1.000
    N4224    N        0.74264    0.18211    0.78080    1.000
    N4225    N        0.73964    0.15966    0.84515    1.000
    N4226    N        0.72095    0.22653    0.85659    1.000
    Si4227   Si       0.70251    0.19177    0.76983    1.000
    Si4228   Si       0.70096    0.14599    0.85923    1.000
    N4229    N        0.74901    0.18491    0.97644    1.000
    Si4230   Si       0.73767    0.04341    0.88853    1.000
    N4231    N        0.73228    0.11927    0.95397    1.000
    N4232    N        0.71825    0.04916    0.92877    1.000
    Si4233   Si       0.73744    0.07552    0.95726    1.000
    N4234    N        0.70687    0.11822    0.89241    1.000
    Si4235   Si       0.74245    0.13585    0.91588    1.000
    Si4236   Si       0.74640    0.19367    0.87088    1.000
    Si4237   Si       0.72131    0.20228    0.94389    1.000
    N4238    N        0.73156    0.17870    0.90952    1.000
    Si4239   Si       0.73941    0.14549    0.98753    1.000
    N4240    N        0.72833    0.24734    0.93986    1.000
    Si4241   Si       0.73732    0.30758    0.03439    1.000
    N4242    N        0.70409    0.36850    0.08343    1.000
    Si4243   Si       0.74834    0.36443    0.08362    1.000
    N4244    N        0.74639    0.27164    0.06059    1.000
    N4245    N        0.69570    0.31541    0.03925    1.000
    N4246    N        0.73234    0.50581    0.10006    1.000
    N4247    N        0.72795    0.39905    0.24203    1.000
    Si4248   Si       0.74606    0.35967    0.22711    1.000
    N4249    N        0.73190    0.34987    0.18703    1.000
    N4250    N        0.73516    0.29191    0.13713    1.000
    Si4251   Si       0.69975    0.27562    0.15741    1.000
    Si4252   Si       0.75269    0.32587    0.15684    1.000
    Si4253   Si       0.71645    0.44408    0.15841    1.000
    Si4254   Si       0.70135    0.50661    0.13105    1.000
    Si4255   Si       0.74281    0.43760    0.23008    1.000
    N4256    N        0.71283    0.44929    0.20142    1.000
    N4257    N        0.71655    0.40246    0.14662    1.000
    N4258    N        0.72651    0.33700    0.25970    1.000
    Si4259   Si       0.71414    0.36999    0.28686    1.000
    Si4260   Si       0.74098    0.29923    0.27740    1.000
    N4261    N        0.70498    0.27935    0.28988    1.000
    N4262    N        0.75198    0.37958    0.30829    1.000
    N4263    N        0.69684    0.34456    0.31853    1.000
    Si4264   Si       0.69589    0.34844    0.36127    1.000
    N4265    N        0.73866    0.44694    0.32074    1.000
    N4266    N        0.73237    0.46777    0.25728    1.000
    Si4267   Si       0.75004    0.48160    0.29466    1.000
    Si4268   Si       0.69851    0.45410    0.33808    1.000
    N4269    N        0.73879    0.50793    0.37077    1.000
    N4270    N        0.73962    0.34960    0.37214    1.000
    Si4271   Si       0.73168    0.33245    0.47725    1.000
    N4272    N        0.70992    0.30051    0.45665    1.000
    Si4273   Si       0.75116    0.37028    0.41077    1.000
    N4274    N        0.69693    0.45166    0.38115    1.000
    N4275    N        0.72071    0.39875    0.42137    1.000
    Si4276   Si       0.71104    0.48957    0.39896    1.000
    Si4277   Si       0.72327    0.43458    0.44883    1.000
    N4278    N        0.73310    0.47566    0.43533    1.000
    Si4279   Si       0.73963    0.33494    0.55253    1.000
    N4280    N        0.73222    0.37757    0.54327    1.000
    N4281    N        0.70027    0.31969    0.55533    1.000
    N4282    N        0.72796    0.44219    0.69202    1.000
    Si4283   Si       0.70307    0.38989    0.51429    1.000
    Si4284   Si       0.71543    0.46415    0.59089    1.000
    N4285    N        0.72582    0.42140    0.59663    1.000
    N4286    N        0.70502    0.47978    0.54831    1.000
    N4287    N        0.70369    0.49406    0.62171    1.000
    N4288    N        0.71786    0.43025    0.49695    1.000
    Si4289   Si       0.73467    0.29677    0.72024    1.000
    N4290    N        0.71254    0.31460    0.68601    1.000
    N4291    N        0.71867    0.36924    0.72201    1.000
    N4292    N        0.74034    0.36470    0.64239    1.000
    Si4293   Si       0.74215    0.35038    0.68515    1.000
    Si4294   Si       0.70945    0.41411    0.72008    1.000
    Si4295   Si       0.71081    0.39021    0.62340    1.000
    Si4296   Si       0.69955    0.47527    0.69766    1.000
    N4297    N        0.73333    0.29750    0.83015    1.000
    N4298    N        0.73661    0.35696    0.79468    1.000
    Si4299   Si       0.74032    0.31370    0.79212    1.000
    Si4300   Si       0.71099    0.31698    0.86292    1.000
    N4301    N        0.71605    0.29940    0.75917    1.000
    Si4302   Si       0.74809    0.37578    0.83200    1.000
    N4303    N        0.72927    0.35619    0.86745    1.000
    Si4304   Si       0.74698    0.37777    0.76009    1.000
    N4305    N        0.72837    0.42025    0.75852    1.000
    Si4306   Si       0.71207    0.45669    0.77454    1.000
    N4307    N        0.73984    0.48243    0.79530    1.000
    N4308    N        0.73399    0.41747    0.83251    1.000
    N4309    N        0.73762    0.48105    0.86492    1.000
    Si4310   Si       0.75309    0.45986    0.83015    1.000
    N4311    N        0.71898    0.29548    0.89946    1.000
    N4312    N        0.73426    0.36362    0.94614    1.000
    N4313    N        0.73135    0.30767    0.98936    1.000
    Si4314   Si       0.73583    0.26283    0.97942    1.000
    Si4315   Si       0.72625    0.37829    0.90440    1.000
    Si4316   Si       0.75615    0.27450    0.91404    1.000
    Si4317   Si       0.72175    0.45238    0.89428    1.000
    N4318    N        0.74728    0.41920    0.90463    1.000
    N4319    N        0.72533    0.47928    0.92887    1.000
    Si4320   Si       0.69466    0.50812    0.93948    1.000
    Si4321   Si       0.74764    0.25790    0.84380    1.000
    Si4322   Si       0.72468    0.53237    0.06621    1.000
    N4323    N        0.74548    0.57032    0.07595    1.000
    Si4324   Si       0.75003    0.59285    0.11518    1.000
    N4325    N        0.70928    0.63760    0.02600    1.000
    N4326    N        0.71909    0.70427    0.05123    1.000
    Si4327   Si       0.73787    0.66835    0.03226    1.000
    N4328    N        0.71529    0.68270    0.11730    1.000
    N4329    N        0.70735    0.60394    0.11910    1.000
    N4330    N        0.71246    0.57610    0.21948    1.000
    N4331    N        0.71709    0.52399    0.16431    1.000
    Si4332   Si       0.71090    0.53575    0.20376    1.000
    N4333    N        0.72572    0.70136    0.18129    1.000
    Si4334   Si       0.72808    0.71708    0.14080    1.000
    N4335    N        0.70875    0.63784    0.17666    1.000
    Si4336   Si       0.73538    0.66350    0.19798    1.000
    N4337    N        0.73971    0.64308    0.23652    1.000
    Si4338   Si       0.74388    0.72672    0.21195    1.000
    N4339    N        0.70205    0.75181    0.14884    1.000
    Si4340   Si       0.75305    0.71346    0.07702    1.000
    N4341    N        0.74933    0.50843    0.03511    1.000
    Si4342   Si       0.71039    0.52277    0.34134    1.000
    N4343    N        0.73639    0.51944    0.30677    1.000
    N4344    N        0.70718    0.56504    0.33787    1.000
    N4345    N        0.70668    0.63014    0.28773    1.000
    Si4346   Si       0.74892    0.56141    0.31537    1.000
    N4347    N        0.74325    0.57807    0.27421    1.000
    Si4348   Si       0.69593    0.59411    0.25920    1.000
    N4349    N        0.73223    0.71901    0.36841    1.000
    Si4350   Si       0.71451    0.66899    0.26296    1.000
    Si4351   Si       0.72924    0.68285    0.34560    1.000
    Si4352   Si       0.72711    0.72696    0.28427    1.000
    N4353    N        0.71453    0.69042    0.30462    1.000
    N4354    N        0.70185    0.65101    0.35483    1.000
    N4355    N        0.73867    0.70634    0.24921    1.000
    Si4356   Si       0.75142    0.61944    0.28672    1.000
    N4357    N        0.74315    0.61117    0.39323    1.000
    Si4358   Si       0.71888    0.55208    0.47101    1.000
    N4359    N        0.71574    0.56346    0.42937    1.000
    Si4360   Si       0.70151    0.62390    0.38867    1.000
    N4361    N        0.69596    0.64699    0.42476    1.000
    N4362    N        0.69502    0.52173    0.48988    1.000
    Si4363   Si       0.73009    0.66679    0.44395    1.000
    Si4364   Si       0.72467    0.73346    0.46758    1.000
    N4365    N        0.71489    0.70710    0.43665    1.000
    Si4366   Si       0.70578    0.73321    0.39873    1.000
    N4367    N        0.72667    0.65412    0.48687    1.000
    N4368    N        0.73825    0.58168    0.58445    1.000
    Si4369   Si       0.70690    0.51966    0.53181    1.000
    Si4370   Si       0.70329    0.61989    0.50351    1.000
    N4371    N        0.74973    0.53305    0.53977    1.000
    Si4372   Si       0.70937    0.70599    0.70491    1.000
    N4373    N        0.70167    0.67803    0.59339    1.000
    Si4374   Si       0.74605    0.66651    0.59441    1.000
    Si4375   Si       0.74623    0.59400    0.62392    1.000
    Si4376   Si       0.72676    0.52291    0.64327    1.000
    N4377    N        0.71892    0.56421    0.64458    1.000
    N4378    N        0.73310    0.74071    0.62683    1.000
    N4379    N        0.74733    0.61016    0.74412    1.000
    N4380    N        0.72474    0.67470    0.73173    1.000
    Si4381   Si       0.70290    0.70880    0.62477    1.000
    N4382    N        0.73968    0.63643    0.62464    1.000
    N4383    N        0.70950    0.68832    0.66394    1.000
    N4384    N        0.73449    0.74073    0.70770    1.000
    Si4385   Si       0.72828    0.64829    0.66470    1.000
    N4386    N        0.69263    0.62029    0.54832    1.000
    N4387    N        0.72059    0.51022    0.68670    1.000
    N4388    N        0.75020    0.71516    0.49795    1.000
    N4389    N        0.72686    0.58552    0.49641    1.000
    N4390    N        0.72280    0.54291    0.83945    1.000
    N4391    N        0.73733    0.55481    0.77426    1.000
    Si4392   Si       0.71547    0.59260    0.77179    1.000
    Si4393   Si       0.70383    0.58300    0.84501    1.000
    N4394    N        0.70633    0.61032    0.81125    1.000
    Si4395   Si       0.74732    0.52514    0.80610    1.000
    N4396    N        0.72588    0.60903    0.87219    1.000
    Si4397   Si       0.73249    0.63977    0.83827    1.000
    N4398    N        0.73434    0.67114    0.80401    1.000
    Si4399   Si       0.71721    0.70717    0.83196    1.000
    Si4400   Si       0.71014    0.68423    0.77150    1.000
    N4401    N        0.72626    0.67368    0.86370    1.000
    N4402    N        0.70518    0.72317    0.78848    1.000
    N4403    N        0.74703    0.73851    0.84796    1.000
    Si4404   Si       0.72779    0.52277    0.87790    1.000
    N4405    N        0.70793    0.52144    0.97762    1.000
    N4406    N        0.74241    0.58659    0.93910    1.000
    Si4407   Si       0.75244    0.61272    0.90666    1.000
    Si4408   Si       0.74766    0.52440    0.99576    1.000
    Si4409   Si       0.75189    0.73902    0.89454    1.000
    N4410    N        0.71907    0.72013    0.91212    1.000
    Si4411   Si       0.72396    0.72414    0.99566    1.000
    Si4412   Si       0.71785    0.67759    0.90790    1.000
    N4413    N        0.74615    0.68690    0.99519    1.000
    N4414    N        0.74613    0.65184    0.92574    1.000
    Si4415   Si       0.71720    0.84427    0.04044    1.000
    N4416    N        0.71463    0.77304    0.08079    1.000
    N4417    N        0.74923    0.81601    0.04082    1.000
    Si4418   Si       0.70220    0.85063    0.11644    1.000
    N4419    N        0.73041    0.88374    0.11728    1.000
    Si4420   Si       0.75438    0.78565    0.07094    1.000
    Si4421   Si       0.70359    0.78475    0.12173    1.000
    N4422    N        0.70361    0.75938    0.01401    1.000
    N4423    N        0.73419    0.88284    0.03037    1.000
    Si4424   Si       0.71822    0.96735    0.04567    1.000
    N4425    N        0.73419    0.97061    0.08564    1.000
    N4426    N        0.72688    0.94426    0.00969    1.000
    Si4427   Si       0.71879    0.95872    0.23013    1.000
    Si4428   Si       0.71103    0.90442    0.99941    1.000
    N4429    N        0.72637    0.76596    0.21118    1.000
    Si4430   Si       0.74834    0.80429    0.21288    1.000
    N4431    N        0.72810    0.82040    0.13426    1.000
    N4432    N        0.71991    0.83740    0.22422    1.000
    Si4433   Si       0.71040    0.88238    0.22507    1.000
    N4434    N        0.72894    0.89854    0.18889    1.000
    Si4435   Si       0.70888    0.97960    0.15839    1.000
    N4436    N        0.75139    0.99012    0.15471    1.000
    Si4437   Si       0.70766    0.90142    0.14783    1.000
    N4438    N        0.69758    0.98027    0.19935    1.000
    N4439    N        0.71503    0.81101    0.29735    1.000
    N4440    N        0.73534    0.85158    0.35586    1.000
    N4441    N        0.71313    0.87980    0.30353    1.000
    Si4442   Si       0.70416    0.84162    0.32433    1.000
    N4443    N        0.74713    0.78219    0.36491    1.000
    Si4444   Si       0.71394    0.98715    0.29869    1.000
    Si4445   Si       0.73450    0.89457    0.36308    1.000
    N4446    N        0.70876    0.99286    0.25780    1.000
    N4447    N        0.70643    0.92138    0.24904    1.000
    N4448    N        0.74310    0.82933    0.41742    1.000
    Si4449   Si       0.72278    0.79365    0.43181    1.000
    N4450    N        0.70170    0.81112    0.46540    1.000
    N4451    N        0.74977    0.76298    0.44650    1.000
    Si4452   Si       0.75523    0.82177    0.37739    1.000
    Si4453   Si       0.74057    0.92456    0.44094    1.000
    N4454    N        0.74137    0.88791    0.46088    1.000
    N4455    N        0.70201    0.94239    0.43378    1.000
    N4456    N        0.75378    0.98044    0.31332    1.000
    N4457    N        0.72961    0.84855    0.54582    1.000
    N4458    N        0.73275    0.78315    0.51889    1.000
    N4459    N        0.74509    0.87324    0.61681    1.000
    Si4460   Si       0.73419    0.87358    0.50053    1.000
    N4461    N        0.73052    0.96018    0.63939    1.000
    N4462    N        0.70836    0.90443    0.67210    1.000
    N4463    N        0.72308    0.95450    0.57127    1.000
    N4464    N        0.74041    0.90931    0.52377    1.000
    Si4465   Si       0.70568    0.93632    0.53563    1.000
    N4466    N        0.70281    0.96419    0.50233    1.000
    Si4467   Si       0.70239    0.95244    0.60880    1.000
    N4468    N        0.71068    0.89672    0.73805    1.000
    Si4469   Si       0.72626    0.78366    0.62732    1.000
    Si4470   Si       0.71214    0.77781    0.71356    1.000
    N4471    N        0.72134    0.79806    0.66831    1.000
    N4472    N        0.74540    0.80447    0.72806    1.000
    Si4473   Si       0.70597    0.88422    0.63249    1.000
    Si4474   Si       0.74882    0.00002    0.63444    1.000
    N4475    N        0.73983    0.96324    0.70451    1.000
    Si4476   Si       0.73952    0.93520    0.67300    1.000
    Si4477   Si       0.72841    0.77850    0.84483    1.000
    Si4478   Si       0.71277    0.82872    0.80379    1.000
    N4479    N        0.70859    0.78753    0.80825    1.000
    N4480    N        0.74801    0.84224    0.78614    1.000
    N4481    N        0.69471    0.85181    0.83613    1.000
    Si4482   Si       0.73814    0.88282    0.76984    1.000
    N4483    N        0.71468    0.90688    0.79933    1.000
    Si4484   Si       0.70890    0.98834    0.85659    1.000
    Si4485   Si       0.73700    0.92324    0.83181    1.000
    N4486    N        0.70815    0.94502    0.85414    1.000
    N4487    N        0.70313    0.00482    0.81455    1.000
    N4488    N        0.75183    0.88937    0.85821    1.000
    Si4489   Si       0.71691    0.86514    0.87298    1.000
    N4490    N        0.73271    0.83680    0.90501    1.000
    N4491    N        0.70652    0.78297    0.94836    1.000
    Si4492   Si       0.74403    0.85699    0.94473    1.000
    Si4493   Si       0.69914    0.80870    0.91281    1.000
    N4494    N        0.69932    0.78181    0.87843    1.000
    Si4495   Si       0.75295    0.78497    0.95333    1.000
    N4496    N        0.71110    0.88468    0.95979    1.000
    N4497    N        0.73831    0.99858    0.88556    1.000
    N4498    N        0.79342    0.08823    0.09716    1.000
    N4499    N        0.77415    0.04572    0.04392    1.000
    N4500    N        0.76834    0.12047    0.01255    1.000
    Si4501   Si       0.75819    0.06781    0.07865    1.000
    Si4502   Si       0.78171    0.12550    0.11932    1.000
    Si4503   Si       0.78753    0.18789    0.20176    1.000
    Si4504   Si       0.78992    0.18357    0.06574    1.000
    N4505    N        0.77704    0.16643    0.10233    1.000
    N4506    N        0.76448    0.20418    0.03828    1.000
    Si4507   Si       0.77876    0.20800    0.99769    1.000
    N4508    N        0.75577    0.22947    0.11619    1.000
    N4509    N        0.79950    0.02016    0.20714    1.000
    N4510    N        0.77980    0.07505    0.17204    1.000
    Si4511   Si       0.77447    0.05596    0.21185    1.000
    N4512    N        0.78918    0.07835    0.24608    1.000
    N4513    N        0.77583    0.23117    0.20381    1.000
    Si4514   Si       0.77941    0.19694    0.13348    1.000
    N4515    N        0.77381    0.16849    0.23830    1.000
    N4516    N        0.76018    0.17768    0.16877    1.000
    Si4517   Si       0.77880    0.08030    0.28700    1.000
    N4518    N        0.80203    0.02261    0.34449    1.000
    N4519    N        0.75788    0.11980    0.28530    1.000
    N4520    N        0.79186    0.13646    0.34554    1.000
    N4521    N        0.80337    0.20407    0.35159    1.000
    Si4522   Si       0.76021    0.20701    0.34355    1.000
    Si4523   Si       0.77150    0.20189    0.26733    1.000
    N4524    N        0.80548    0.23000    0.26156    1.000
    N4525    N        0.76037    0.18460    0.30567    1.000
    Si4526   Si       0.75860    0.14294    0.32087    1.000
    Si4527   Si       0.76470    0.05354    0.40449    1.000
    N4528    N        0.79500    0.07786    0.38396    1.000
    Si4529   Si       0.79306    0.12012    0.38400    1.000
    N4530    N        0.78284    0.02499    0.43333    1.000
    Si4531   Si       0.75888    0.04003    0.46988    1.000
    N4532    N        0.78978    0.12327    0.45317    1.000
    N4533    N        0.79622    0.19024    0.44702    1.000
    Si4534   Si       0.77787    0.22022    0.47151    1.000
    N4535    N        0.75597    0.13532    0.39979    1.000
    N4536    N        0.80222    0.24599    0.49626    1.000
    Si4537   Si       0.77496    0.06935    0.54316    1.000
    N4538    N        0.79785    0.03456    0.55516    1.000
    N4539    N        0.80099    0.10104    0.56027    1.000
    Si4540   Si       0.80540    0.10148    0.60474    1.000
    Si4541   Si       0.81005    0.02532    0.59562    1.000
    N4542    N        0.77207    0.07041    0.49970    1.000
    N4543    N        0.76337    0.13623    0.51961    1.000
    Si4544   Si       0.79077    0.10948    0.49507    1.000
    N4545    N        0.77337    0.13064    0.60616    1.000
    Si4546   Si       0.75756    0.12294    0.56494    1.000
    N4547    N        0.76572    0.24966    0.55790    1.000
    Si4548   Si       0.80502    0.25105    0.54042    1.000
    N4549    N        0.80526    0.06039    0.62222    1.000
    N4550    N        0.77235    0.01480    0.66913    1.000
    Si4551   Si       0.78856    0.05523    0.66348    1.000
    N4552    N        0.78215    0.12303    0.71194    1.000
    Si4553   Si       0.80879    0.23529    0.63941    1.000
    N4554    N        0.80498    0.16265    0.65856    1.000
    N4555    N        0.77472    0.21112    0.62423    1.000
    Si4556   Si       0.77583    0.16749    0.62918    1.000
    Si4557   Si       0.77690    0.22667    0.71219    1.000
    N4558    N        0.80421    0.24226    0.68281    1.000
    N4559    N        0.76015    0.18713    0.70450    1.000
    Si4560   Si       0.79622    0.16282    0.70189    1.000
    Si4561   Si       0.78769    0.08643    0.80194    1.000
    Si4562   Si       0.79355    0.02853    0.77847    1.000
    N4563    N        0.76475    0.04808    0.80640    1.000
    N4564    N        0.80501    0.07105    0.76517    1.000
    N4565    N        0.75645    0.11316    0.78937    1.000
    Si4566   Si       0.77854    0.20860    0.78493    1.000
    N4567    N        0.77022    0.24485    0.80818    1.000
    N4568    N        0.79779    0.17744    0.80896    1.000
    Si4569   Si       0.76042    0.15450    0.80767    1.000
    N4570    N        0.79878    0.22641    0.75060    1.000
    Si4571   Si       0.80538    0.10232    0.94466    1.000
    N4572    N        0.78099    0.06921    0.96166    1.000
    N4573    N        0.77696    0.05561    0.87989    1.000
    Si4574   Si       0.79242    0.02684    0.96890    1.000
    N4575    N        0.78627    0.13203    0.91788    1.000
    N4576    N        0.79486    0.01004    0.92730    1.000
    N4577    N        0.78944    0.19354    0.87845    1.000
    Si4578   Si       0.81034    0.16343    0.90113    1.000
    Si4579   Si       0.81310    0.04225    0.89880    1.000
    N4580    N        0.77524    0.25359    0.99459    1.000
    N4581    N        0.77572    0.00950    0.74480    1.000
    Si4582   Si       0.79549    0.35966    0.02940    1.000
    N4583    N        0.80029    0.27790    0.11234    1.000
    N4584    N        0.75997    0.34315    0.04856    1.000
    Si4585   Si       0.75881    0.27234    0.10420    1.000
    Si4586   Si       0.80140    0.42721    0.07168    1.000
    N4587    N        0.78719    0.46968    0.07939    1.000
    Si4588   Si       0.78957    0.49805    0.04779    1.000
    N4589    N        0.76735    0.40403    0.08734    1.000
    Si4590   Si       0.76341    0.47979    0.11336    1.000
    N4591    N        0.75901    0.35549    0.12535    1.000
    N4592    N        0.79084    0.31554    0.17301    1.000
    N4593    N        0.78782    0.36441    0.22598    1.000
    Si4594   Si       0.81519    0.33236    0.20938    1.000
    Si4595   Si       0.79645    0.26037    0.23130    1.000
    N4596    N        0.80417    0.40543    0.14412    1.000
    N4597    N        0.77923    0.42913    0.20852    1.000
    Si4598   Si       0.80088    0.40541    0.23735    1.000
    N4599    N        0.78612    0.50470    0.14255    1.000
    Si4600   Si       0.79354    0.44081    0.16932    1.000
    N4601    N        0.75734    0.44782    0.14219    1.000
    Si4602   Si       0.76077    0.40193    0.13202    1.000
    N4603    N        0.81301    0.40139    0.03787    1.000
    N4604    N        0.75893    0.27863    0.24524    1.000
    N4605    N        0.80454    0.34705    0.34757    1.000
    Si4606   Si       0.76277    0.34745    0.33486    1.000
    Si4607   Si       0.76837    0.27747    0.34495    1.000
    N4608    N        0.76165    0.30850    0.31507    1.000
    Si4609   Si       0.80306    0.41041    0.44191    1.000
    N4610    N        0.79256    0.48817    0.29262    1.000
    N4611    N        0.79534    0.42527    0.27608    1.000
    Si4612   Si       0.77223    0.41942    0.31401    1.000
    N4613    N        0.80579    0.41911    0.34242    1.000
    N4614    N        0.80758    0.49102    0.35614    1.000
    Si4615   Si       0.81260    0.38477    0.36886    1.000
    Si4616   Si       0.80340    0.33980    0.44759    1.000
    Si4617   Si       0.80322    0.28400    0.40047    1.000
    N4618    N        0.76034    0.27325    0.38858    1.000
    N4619    N        0.75915    0.34501    0.44528    1.000
    N4620    N        0.80667    0.49834    0.45125    1.000
    N4621    N        0.78877    0.39151    0.40565    1.000
    Si4622   Si       0.76316    0.49157    0.46175    1.000
    N4623    N        0.76866    0.42687    0.45950    1.000
    Si4624   Si       0.79901    0.32364    0.52045    1.000
    Si4625   Si       0.76210    0.27630    0.59365    1.000
    Si4626   Si       0.77410    0.35218    0.61607    1.000
    N4627    N        0.79713    0.27340    0.61774    1.000
    N4628    N        0.76019    0.32157    0.58908    1.000
    N4629    N        0.75710    0.32517    0.51327    1.000
    N4630    N        0.78766    0.38567    0.59129    1.000
    N4631    N        0.76086    0.47848    0.58737    1.000
    Si4632   Si       0.76942    0.49431    0.54484    1.000
    N4633    N        0.78180    0.42158    0.53760    1.000
    Si4634   Si       0.76295    0.43620    0.50155    1.000
    N4635    N        0.77040    0.47820    0.50328    1.000
    Si4636   Si       0.80909    0.41673    0.61619    1.000
    Si4637   Si       0.79649    0.32835    0.74238    1.000
    N4638    N        0.80356    0.34117    0.64783    1.000
    N4639    N        0.76737    0.32549    0.71056    1.000
    Si4640   Si       0.78370    0.47720    0.62558    1.000
    N4641    N        0.78912    0.47332    0.69582    1.000
    Si4642   Si       0.76859    0.43786    0.68164    1.000
    Si4643   Si       0.81160    0.39726    0.72826    1.000
    N4644    N        0.78534    0.39739    0.69225    1.000
    N4645    N        0.77780    0.43603    0.63916    1.000
    Si4646   Si       0.75511    0.40545    0.56728    1.000
    N4647    N        0.77864    0.30618    0.77456    1.000
    N4648    N        0.79141    0.36847    0.83024    1.000
    Si4649   Si       0.79947    0.27645    0.79660    1.000
    N4650    N        0.78974    0.37015    0.75347    1.000
    N4651    N        0.81460    0.29818    0.83289    1.000
    N4652    N        0.79377    0.44556    0.83321    1.000
    Si4653   Si       0.81058    0.40597    0.84223    1.000
    N4654    N        0.77757    0.30356    0.93865    1.000
    N4655    N        0.79106    0.35119    0.98742    1.000
    Si4656   Si       0.75710    0.33236    0.96353    1.000
    N4657    N        0.77452    0.26299    0.87725    1.000
    Si4658   Si       0.76525    0.49452    0.93140    1.000
    N4659    N        0.79694    0.46743    0.91252    1.000
    N4660    N        0.81249    0.40793    0.94963    1.000
    Si4661   Si       0.79111    0.42462    0.91627    1.000
    N4662    N        0.77869    0.50298    0.97134    1.000
    Si4663   Si       0.77801    0.57057    0.04643    1.000
    N4664    N        0.79472    0.61029    0.04703    1.000
    N4665    N        0.76298    0.56384    0.00498    1.000
    N4666    N        0.77350    0.63065    0.11354    1.000
    N4667    N        0.80809    0.54032    0.05340    1.000
    Si4668   Si       0.79554    0.64226    0.07617    1.000
    N4669    N        0.76984    0.67332    0.06024    1.000
    N4670    N        0.77237    0.74790    0.05679    1.000
    Si4671   Si       0.79967    0.75349    0.11025    1.000
    N4672    N        0.76395    0.72670    0.11697    1.000
    Si4673   Si       0.81158    0.75344    0.04053    1.000
    N4674    N        0.77731    0.65635    0.18855    1.000
    N4675    N        0.76593    0.57014    0.15070    1.000
    Si4676   Si       0.79996    0.57739    0.17562    1.000
    N4677    N        0.78714    0.59260    0.21626    1.000
    Si4678   Si       0.75948    0.53033    0.16347    1.000
    N4679    N        0.75750    0.53319    0.20761    1.000
    Si4680   Si       0.75509    0.57089    0.23233    1.000
    Si4681   Si       0.78521    0.63571    0.22752    1.000
    N4682    N        0.78632    0.72537    0.19836    1.000
    Si4683   Si       0.79681    0.64440    0.14838    1.000
    N4684    N        0.78727    0.54770    0.33446    1.000
    N4685    N        0.76378    0.60596    0.32708    1.000
    Si4686   Si       0.76974    0.62837    0.36430    1.000
    Si4687   Si       0.80757    0.58495    0.34239    1.000
    N4688    N        0.80894    0.72236    0.44486    1.000
    N4689    N        0.78971    0.63165    0.27321    1.000
    N4690    N        0.77136    0.66767    0.34863    1.000
    N4691    N        0.80155    0.73359    0.34712    1.000
    Si4692   Si       0.76103    0.74735    0.34481    1.000
    Si4693   Si       0.80913    0.68870    0.34720    1.000
    Si4694   Si       0.77933    0.51977    0.37214    1.000
    N4695    N        0.80834    0.61002    0.37827    1.000
    Si4696   Si       0.80299    0.54401    0.44525    1.000
    N4697    N        0.78042    0.54874    0.40580    1.000
    N4698    N        0.78121    0.59454    0.45566    1.000
    N4699    N        0.75974    0.53508    0.46953    1.000
    Si4700   Si       0.77238    0.57015    0.49533    1.000
    Si4701   Si       0.75580    0.58099    0.42104    1.000
    Si4702   Si       0.79720    0.63443    0.46017    1.000
    N4703    N        0.77168    0.66446    0.43629    1.000
    Si4704   Si       0.81106    0.68391    0.42543    1.000
    Si4705   Si       0.81235    0.51419    0.31992    1.000
    N4706    N        0.75054    0.75587    0.30313    1.000
    Si4707   Si       0.79265    0.75938    0.45659    1.000
    N4708    N        0.78517    0.58778    0.53291    1.000
    Si4709   Si       0.77066    0.56257    0.56448    1.000
    N4710    N        0.80309    0.54635    0.59024    1.000
    Si4711   Si       0.80883    0.62436    0.53191    1.000
    N4712    N        0.77912    0.69476    0.60340    1.000
    Si4713   Si       0.76081    0.74955    0.52227    1.000
    Si4714   Si       0.79976    0.68972    0.56461    1.000
    N4715    N        0.77760    0.75422    0.56003    1.000
    Si4716   Si       0.75753    0.67372    0.50841    1.000
    N4717    N        0.75758    0.67402    0.55164    1.000
    N4718    N        0.79203    0.64919    0.50082    1.000
    N4719    N        0.78980    0.71229    0.66762    1.000
    Si4720   Si       0.79840    0.54817    0.63485    1.000
    N4721    N        0.78481    0.58851    0.64015    1.000
    N4722    N        0.77793    0.54798    0.70897    1.000
    Si4723   Si       0.79841    0.62070    0.66453    1.000
    N4724    N        0.76968    0.51398    0.64512    1.000
    Si4725   Si       0.76556    0.51055    0.69029    1.000
    Si4726   Si       0.75813    0.64762    0.73000    1.000
    N4727    N        0.80791    0.73518    0.73251    1.000
    N4728    N        0.76651    0.64184    0.68691    1.000
    Si4729   Si       0.77525    0.72846    0.62971    1.000
    Si4730   Si       0.77955    0.74254    0.69892    1.000
    N4731    N        0.78951    0.52932    0.81581    1.000
    N4732    N        0.80527    0.57175    0.76160    1.000
    Si4733   Si       0.80781    0.62370    0.85918    1.000
    Si4734   Si       0.76430    0.57034    0.74481    1.000
    N4735    N        0.77745    0.63645    0.83168    1.000
    N4736    N        0.80138    0.70218    0.81429    1.000
    Si4737   Si       0.77882    0.66554    0.80073    1.000
    Si4738   Si       0.79047    0.72855    0.84615    1.000
    N4739    N        0.78635    0.66690    0.75789    1.000
    N4740    N        0.79046    0.59521    0.88837    1.000
    Si4741   Si       0.79812    0.55730    0.90747    1.000
    Si4742   Si       0.77265    0.58689    0.96865    1.000
    N4743    N        0.76579    0.52801    0.90381    1.000
    N4744    N        0.80756    0.57205    0.94737    1.000
    N4745    N        0.77883    0.62809    0.98379    1.000
    N4746    N        0.79770    0.69183    0.95006    1.000
    Si4747   Si       0.79579    0.72940    0.97179    1.000
    Si4748   Si       0.76563    0.66458    0.96443    1.000
    N4749    N        0.79045    0.71806    0.88857    1.000
    N4750    N        0.75578    0.74720    0.97447    1.000
    N4751    N        0.78138    0.79381    0.10584    1.000
    N4752    N        0.79839    0.86052    0.02659    1.000
    Si4753   Si       0.78057    0.82503    0.00956    1.000
    N4754    N        0.80599    0.79100    0.01692    1.000
    Si4755   Si       0.77561    0.89535    0.03846    1.000
    N4756    N        0.79075    0.90357    0.08004    1.000
    N4757    N        0.79988    0.98245    0.10874    1.000
    N4758    N        0.78997    0.92942    0.01019    1.000
    Si4759   Si       0.77476    0.88839    0.11927    1.000
    N4760    N        0.79394    0.85554    0.14456    1.000
    Si4761   Si       0.77062    0.81833    0.14248    1.000
    N4762    N        0.77673    0.79731    0.17954    1.000
    Si4763   Si       0.80287    0.76361    0.18503    1.000
    N4764    N        0.80589    0.91195    0.21194    1.000
    N4765    N        0.77595    0.92121    0.14862    1.000
    Si4766   Si       0.76774    0.91911    0.19051    1.000
    Si4767   Si       0.80537    0.95188    0.13857    1.000
    N4768    N        0.81470    0.96668    0.17759    1.000
    Si4769   Si       0.77671    0.98812    0.18981    1.000
    N4770    N        0.75705    0.95539    0.21295    1.000
    Si4771   Si       0.81068    0.88276    0.24414    1.000
    Si4772   Si       0.75772    0.99727    0.11196    1.000
    N4773    N        0.77938    0.82963    0.31235    1.000
    N4774    N        0.77343    0.80069    0.25037    1.000
    N4775    N        0.77595    0.88096    0.26960    1.000
    Si4776   Si       0.75608    0.79806    0.29029    1.000
    Si4777   Si       0.75988    0.87007    0.30657    1.000
    Si4778   Si       0.76482    0.00358    0.35108    1.000
    Si4779   Si       0.77856    0.94625    0.32738    1.000
    N4780    N        0.77811    0.96255    0.36661    1.000
    N4781    N        0.76499    0.90509    0.33201    1.000
    N4782    N        0.75484    0.90178    0.40274    1.000
    N4783    N        0.79774    0.82242    0.37957    1.000
    N4784    N        0.80540    0.86213    0.43846    1.000
    Si4785   Si       0.76197    0.86582    0.43006    1.000
    Si4786   Si       0.80767    0.86247    0.48331    1.000
    N4787    N        0.76876    0.84331    0.49424    1.000
    Si4788   Si       0.81433    0.83050    0.33885    1.000
    Si4789   Si       0.79528    0.98732    0.45340    1.000
    Si4790   Si       0.78459    0.93486    0.39899    1.000
    N4791    N        0.77276    0.95420    0.43629    1.000
    N4792    N        0.78254    0.00503    0.48977    1.000
    N4793    N        0.78772    0.82481    0.55536    1.000
    Si4794   Si       0.79401    0.78745    0.58625    1.000
    Si4795   Si       0.76154    0.85974    0.57604    1.000
    Si4796   Si       0.75589    0.81813    0.52664    1.000
    N4797    N        0.80520    0.75945    0.62245    1.000
    N4798    N        0.79578    0.76567    0.50039    1.000
    N4799    N        0.79063    0.89154    0.56645    1.000
    Si4800   Si       0.80334    0.99890    0.52840    1.000
    Si4801   Si       0.78099    0.91961    0.53431    1.000
    N4802    N        0.78617    0.96219    0.54259    1.000
    N4803    N        0.77838    0.99402    0.60283    1.000
    N4804    N        0.80772    0.90216    0.50150    1.000
    Si4805   Si       0.75656    0.98471    0.56753    1.000
    N4806    N        0.79983    0.84075    0.74256    1.000
    N4807    N        0.77565    0.85081    0.67870    1.000
    Si4808   Si       0.76083    0.81206    0.68769    1.000
    N4809    N        0.79158    0.78194    0.68514    1.000
    Si4810   Si       0.77921    0.87850    0.64462    1.000
    Si4811   Si       0.80874    0.86053    0.70610    1.000
    Si4812   Si       0.77552    0.99205    0.70661    1.000
    N4813    N        0.81197    0.97073    0.70267    1.000
    N4814    N        0.77954    0.91775    0.66269    1.000
    N4815    N        0.76033    0.80379    0.61008    1.000
    N4816    N        0.79432    0.78569    0.78029    1.000
    Si4817   Si       0.79657    0.79736    0.82337    1.000
    Si4818   Si       0.76924    0.81364    0.76080    1.000
    N4819    N        0.76121    0.80735    0.84706    1.000
    N4820    N        0.77925    0.93478    0.82760    1.000
    Si4821   Si       0.78948    0.91049    0.86260    1.000
    N4822    N        0.77536    0.90057    0.76686    1.000
    Si4823   Si       0.80919    0.96029    0.80985    1.000
    N4824    N        0.75731    0.82490    0.97143    1.000
    Si4825   Si       0.77077    0.81701    0.88949    1.000
    N4826    N        0.76151    0.77855    0.90970    1.000
    Si4827   Si       0.76916    0.97734    0.91040    1.000
    N4828    N        0.76336    0.00257    0.99198    1.000
    N4829    N        0.75949    0.95110    0.94683    1.000
    N4830    N        0.77642    0.88310    0.93447    1.000
    N4831    N        0.78794    0.94267    0.89172    1.000
    Si4832   Si       0.78972    0.92386    0.93213    1.000
    Si4833   Si       0.76205    0.95856    0.98913    1.000
    N4834    N        0.81389    0.00331    0.80573    1.000
    N4835    N        0.81313    0.82473    0.89726    1.000
    N4836    N        0.83035    0.08455    0.03535    1.000
    Si4837   Si       0.83100    0.06671    0.09598    1.000
    N4838    N        0.83350    0.02990    0.07177    1.000
    Si4839   Si       0.81855    0.04302    0.03361    1.000
    N4840    N        0.82853    0.17241    0.19946    1.000
    N4841    N        0.81609    0.15255    0.04907    1.000
    Si4842   Si       0.85053    0.17261    0.06237    1.000
    Si4843   Si       0.85556    0.23643    0.05523    1.000
    N4844    N        0.82481    0.21033    0.07380    1.000
    N4845    N        0.87036    0.25193    0.09349    1.000
    Si4846   Si       0.83552    0.24599    0.12091    1.000
    Si4847   Si       0.83300    0.08528    0.23865    1.000
    N4848    N        0.83810    0.05636    0.13852    1.000
    N4849    N        0.84779    0.08860    0.19757    1.000
    Si4850   Si       0.82033    0.08973    0.16296    1.000
    Si4851   Si       0.86533    0.02462    0.15189    1.000
    Si4852   Si       0.83984    0.01363    0.22055    1.000
    N4853    N        0.82012    0.21040    0.14235    1.000
    Si4854   Si       0.83921    0.17163    0.15642    1.000
    Si4855   Si       0.85546    0.15750    0.23359    1.000
    Si4856   Si       0.81039    0.11952    0.01836    1.000
    N4857    N        0.81957    0.13098    0.14404    1.000
    Si4858   Si       0.84988    0.11068    0.30100    1.000
    N4859    N        0.84434    0.12403    0.25955    1.000
    N4860    N        0.85716    0.04678    0.35912    1.000
    N4861    N        0.84953    0.04671    0.24971    1.000
    Si4862   Si       0.81753    0.06411    0.34855    1.000
    N4863    N        0.81735    0.08108    0.30924    1.000
    Si4864   Si       0.87485    0.04208    0.28560    1.000
    N4865    N        0.85844    0.23818    0.31152    1.000
    Si4866   Si       0.83190    0.23741    0.34799    1.000
    N4867    N        0.85839    0.14636    0.33141    1.000
    Si4868   Si       0.82484    0.16500    0.35428    1.000
    Si4869   Si       0.84642    0.22835    0.27083    1.000
    N4870    N        0.86820    0.19456    0.25120    1.000
    N4871    N        0.86563    0.21721    0.36807    1.000
    N4872    N        0.85836    0.01780    0.45039    1.000
    Si4873   Si       0.86819    0.10972    0.47835    1.000
    N4874    N        0.87021    0.08939    0.44120    1.000
    Si4875   Si       0.86968    0.12631    0.41340    1.000
    N4876    N        0.85665    0.14700    0.45498    1.000
    N4877    N        0.82799    0.14316    0.39735    1.000
    Si4878   Si       0.81761    0.15364    0.43957    1.000
    Si4879   Si       0.84073    0.11466    0.54699    1.000
    N4880    N        0.83381    0.10771    0.50420    1.000
    N4881    N        0.85286    0.01767    0.59537    1.000
    N4882    N        0.83955    0.12670    0.61498    1.000
    N4883    N        0.83528    0.22460    0.55504    1.000
    N4884    N        0.84821    0.15633    0.54888    1.000
    Si4885   Si       0.86253    0.22785    0.59121    1.000
    Si4886   Si       0.86358    0.19453    0.54031    1.000
    N4887    N        0.84969    0.11729    0.72901    1.000
    Si4888   Si       0.85336    0.03587    0.70147    1.000
    N4889    N        0.84996    0.01634    0.74308    1.000
    N4890    N        0.81734    0.06142    0.69662    1.000
    N4891    N        0.84349    0.20939    0.62622    1.000
    Si4892   Si       0.84155    0.21852    0.74206    1.000
    Si4893   Si       0.86480    0.15449    0.71010    1.000
    N4894    N        0.83147    0.18191    0.71776    1.000
    N4895    N        0.86696    0.25154    0.72176    1.000
    Si4896   Si       0.84199    0.16594    0.63702    1.000
    N4897    N        0.86835    0.09175    0.56807    1.000
    N4898    N        0.87287    0.15984    0.66591    1.000
    Si4899   Si       0.81136    0.09297    0.72701    1.000
    N4900    N        0.86473    0.00960    0.66861    1.000
    Si4901   Si       0.85236    0.11842    0.84450    1.000
    N4902    N        0.81980    0.09610    0.82884    1.000
    Si4903   Si       0.86002    0.23846    0.80762    1.000
    N4904    N        0.83259    0.23254    0.84257    1.000
    N4905    N        0.83759    0.15437    0.86474    1.000
    N4906    N        0.86892    0.20956    0.77522    1.000
    Si4907   Si       0.82052    0.19113    0.84555    1.000
    N4908    N        0.84396    0.02077    0.87483    1.000
    N4909    N        0.83022    0.07770    0.91758    1.000
    N4910    N        0.82819    0.12501    0.97871    1.000
    N4911    N        0.82875    0.02540    0.99305    1.000
    N4912    N        0.84509    0.18037    0.91918    1.000
    N4913    N        0.86976    0.23800    0.94889    1.000
    Si4914   Si       0.81745    0.25566    0.99418    1.000
    N4915    N        0.82014    0.21069    0.98664    1.000
    Si4916   Si       0.85283    0.19927    0.95729    1.000
    N4917    N        0.83020    0.33707    0.04391    1.000
    Si4918   Si       0.84467    0.30795    0.01570    1.000
    Si4919   Si       0.85046    0.34314    0.08150    1.000
    N4920    N        0.83606    0.26721    0.03275    1.000
    N4921    N        0.83088    0.34050    0.11918    1.000
    N4922    N        0.84465    0.44028    0.07982    1.000
    Si4923   Si       0.85657    0.39405    0.03141    1.000
    Si4924   Si       0.85270    0.46136    0.03853    1.000
    N4925    N        0.81906    0.48101    0.01817    1.000
    N4926    N        0.86739    0.49864    0.05674    1.000
    N4927    N        0.84334    0.41629    0.22703    1.000
    Si4928   Si       0.86558    0.47742    0.09698    1.000
    Si4929   Si       0.83645    0.37599    0.14452    1.000
    N4930    N        0.82662    0.28852    0.22112    1.000
    N4931    N        0.83709    0.35878    0.18397    1.000
    N4932    N        0.84820    0.27670    0.15213    1.000
    Si4933   Si       0.85769    0.37680    0.21908    1.000
    Si4934   Si       0.86575    0.29859    0.23372    1.000
    Si4935   Si       0.81794    0.30619    0.14099    1.000
    N4936    N        0.85092    0.50739    0.12382    1.000
    Si4937   Si       0.82699    0.50625    0.16030    1.000
    Si4938   Si       0.85376    0.45881    0.21224    1.000
    N4939    N        0.82927    0.46492    0.17670    1.000
    N4940    N        0.84961    0.34103    0.24359    1.000
    N4941    N        0.84473    0.30605    0.30256    1.000
    Si4942   Si       0.83334    0.31498    0.34360    1.000
    N4943    N        0.87211    0.31876    0.36369    1.000
    N4944    N        0.83669    0.43623    0.43538    1.000
    N4945    N        0.81502    0.27636    0.35713    1.000
    N4946    N        0.82095    0.26121    0.43315    1.000
    N4947    N        0.85208    0.47689    0.49136    1.000
    Si4948   Si       0.83032    0.45207    0.34840    1.000
    N4949    N        0.85025    0.46066    0.31078    1.000
    Si4950   Si       0.82224    0.46166    0.27676    1.000
    N4951    N        0.84319    0.48383    0.24674    1.000
    N4952    N        0.82036    0.37674    0.46441    1.000
    Si4953   Si       0.86149    0.34359    0.40288    1.000
    Si4954   Si       0.83026    0.27364    0.47480    1.000
    N4955    N        0.82202    0.32558    0.41351    1.000
    N4956    N        0.87395    0.28007    0.47575    1.000
    N4957    N        0.81399    0.31448    0.48110    1.000
    N4958    N        0.86277    0.44791    0.37616    1.000
    Si4959   Si       0.84462    0.47625    0.44719    1.000
    Si4960   Si       0.86476    0.41689    0.40827    1.000
    N4961    N        0.85160    0.38081    0.38710    1.000
    N4962    N        0.85049    0.32628    0.60070    1.000
    Si4963   Si       0.84779    0.32452    0.55683    1.000
    N4964    N        0.82373    0.35574    0.53762    1.000
    Si4965   Si       0.84231    0.37274    0.50154    1.000
    N4966    N        0.81583    0.29252    0.54664    1.000
    N4967    N        0.84560    0.41158    0.51956    1.000
    Si4968   Si       0.85815    0.46223    0.59354    1.000
    N4969    N        0.83313    0.42830    0.58307    1.000
    Si4970   Si       0.81793    0.39895    0.55403    1.000
    N4971    N        0.81294    0.50339    0.54181    1.000
    N4972    N        0.83911    0.40004    0.64421    1.000
    Si4973   Si       0.81693    0.37256    0.67205    1.000
    Si4974   Si       0.82341    0.30671    0.63044    1.000
    N4975    N        0.84730    0.27984    0.65776    1.000
    N4976    N        0.83095    0.30416    0.72800    1.000
    Si4977   Si       0.83409    0.27278    0.69612    1.000
    N4978    N        0.84360    0.37482    0.70850    1.000
    N4979    N        0.82793    0.47474    0.62681    1.000
    N4980    N        0.85956    0.47662    0.69415    1.000
    Si4981   Si       0.85283    0.49874    0.65499    1.000
    N4982    N        0.82788    0.43625    0.73795    1.000
    Si4983   Si       0.82626    0.47451    0.72043    1.000
    N4984    N        0.86470    0.50599    0.58860    1.000
    N4985    N        0.82064    0.50673    0.74619    1.000
    Si4986   Si       0.81455    0.50045    0.49823    1.000
    N4987    N        0.85098    0.35016    0.86429    1.000
    N4988    N        0.85386    0.35073    0.79944    1.000
    Si4989   Si       0.82538    0.33949    0.82965    1.000
    N4990    N        0.84005    0.26922    0.78338    1.000
    Si4991   Si       0.86237    0.28464    0.75182    1.000
    Si4992   Si       0.81661    0.26690    0.86414    1.000
    N4993    N        0.84574    0.48796    0.80550    1.000
    N4994    N        0.84955    0.41620    0.82333    1.000
    Si4995   Si       0.83645    0.45805    0.83318    1.000
    Si4996   Si       0.83441    0.48877    0.90907    1.000
    Si4997   Si       0.82110    0.30420    0.93572    1.000
    N4998    N        0.83184    0.34553    0.93242    1.000
    Si4999   Si       0.82595    0.37204    0.96677    1.000
    N5000    N        0.83611    0.29007    0.97515    1.000
    N5001    N        0.83519    0.28008    0.90124    1.000
    Si5002   Si       0.84137    0.37190    0.89995    1.000
    N5003    N        0.86039    0.36861    0.99443    1.000
    N5004    N        0.84694    0.48868    0.95124    1.000
    N5005    N        0.85149    0.47476    0.87153    1.000
    N5006    N        0.81630    0.40333    0.88525    1.000
    Si5007   Si       0.81952    0.50063    0.98014    1.000
    Si5008   Si       0.84762    0.53482    0.03838    1.000
    Si5009   Si       0.81334    0.62525    0.01007    1.000
    N5010    N        0.84060    0.53744    0.99546    1.000
    N5011    N        0.83611    0.65565    0.08752    1.000
    N5012    N        0.83480    0.65894    0.02412    1.000
    Si5013   Si       0.84965    0.69691    0.01131    1.000
    N5014    N        0.83296    0.74691    0.07760    1.000
    N5015    N        0.81787    0.72416    0.00804    1.000
    Si5016   Si       0.86316    0.66655    0.11753    1.000
    Si5017   Si       0.86821    0.65726    0.05560    1.000
    N5018    N        0.82400    0.68038    0.15232    1.000
    Si5019   Si       0.86762    0.55146    0.20298    1.000
    N5020    N        0.82716    0.54346    0.18256    1.000
    N5021    N        0.82149    0.61048    0.15717    1.000
    Si5022   Si       0.86244    0.60283    0.15059    1.000
    N5023    N        0.82616    0.75385    0.14668    1.000
    N5024    N        0.82655    0.66095    0.22584    1.000
    Si5025   Si       0.85008    0.71615    0.15615    1.000
    Si5026   Si       0.86944    0.65847    0.23945    1.000
    Si5027   Si       0.86661    0.75242    0.21221    1.000
    N5028    N        0.85034    0.71459    0.19930    1.000
    N5029    N        0.87432    0.54789    0.24413    1.000
    Si5030   Si       0.81261    0.68835    0.19546    1.000
    N5031    N        0.84940    0.52963    0.30320    1.000
    N5032    N        0.83337    0.59559    0.31085    1.000
    N5033    N        0.86773    0.62240    0.26425    1.000
    Si5034   Si       0.86713    0.51248    0.26789    1.000
    Si5035   Si       0.86263    0.56540    0.32158    1.000
    N5036    N        0.84612    0.56155    0.36215    1.000
    Si5037   Si       0.83082    0.63200    0.28866    1.000
    N5038    N        0.82937    0.68906    0.38686    1.000
    N5039    N        0.83297    0.67046    0.31546    1.000
    N5040    N        0.85626    0.74256    0.30782    1.000
    Si5041   Si       0.84122    0.75538    0.34546    1.000
    Si5042   Si       0.86767    0.69776    0.30699    1.000
    Si5043   Si       0.84273    0.58840    0.39604    1.000
    N5044    N        0.81731    0.54473    0.49090    1.000
    N5045    N        0.84102    0.56012    0.42889    1.000
    N5046    N        0.83372    0.65271    0.44536    1.000
    Si5047   Si       0.83557    0.52964    0.56622    1.000
    N5048    N        0.84807    0.61267    0.51673    1.000
    Si5049   Si       0.85473    0.57069    0.50358    1.000
    N5050    N        0.86230    0.55673    0.54504    1.000
    N5051    N        0.87431    0.62431    0.59308    1.000
    N5052    N        0.81605    0.64731    0.56755    1.000
    N5053    N        0.85578    0.69171    0.59648    1.000
    N5054    N        0.82909    0.71321    0.54086    1.000
    Si5055   Si       0.84183    0.65066    0.60172    1.000
    Si5056   Si       0.82978    0.75567    0.52664    1.000
    Si5057   Si       0.86905    0.70136    0.55578    1.000
    Si5058   Si       0.85605    0.56869    0.67715    1.000
    N5059    N        0.83155    0.53842    0.66027    1.000
    N5060    N        0.82983    0.60076    0.68905    1.000
    N5061    N        0.86150    0.55224    0.71884    1.000
    Si5062   Si       0.81721    0.54619    0.72738    1.000
    Si5063   Si       0.84806    0.62861    0.71801    1.000
    Si5064   Si       0.82405    0.68460    0.66722    1.000
    N5065    N        0.82197    0.64993    0.64157    1.000
    N5066    N        0.86536    0.69821    0.66142    1.000
    N5067    N        0.82906    0.66772    0.70918    1.000
    Si5068   Si       0.81688    0.69176    0.74309    1.000
    N5069    N        0.83620    0.60026    0.83332    1.000
    Si5070   Si       0.83710    0.58803    0.78863    1.000
    N5071    N        0.85517    0.61446    0.75845    1.000
    N5072    N        0.85866    0.54905    0.79207    1.000
    Si5073   Si       0.82115    0.51977    0.78938    1.000
    Si5074   Si       0.84213    0.70975    0.80634    1.000
    N5075    N        0.85090    0.68473    0.77203    1.000
    N5076    N        0.85674    0.71195    0.84835    1.000
    N5077    N        0.85170    0.74801    0.78595    1.000
    Si5078   Si       0.85661    0.75471    0.85928    1.000
    Si5079   Si       0.84514    0.56858    0.96797    1.000
    N5080    N        0.83542    0.53452    0.90021    1.000
    N5081    N        0.84556    0.60688    0.98663    1.000
    Si5082   Si       0.81617    0.69151    0.91117    1.000
    Si5083   Si       0.86228    0.67571    0.87537    1.000
    N5084    N        0.85942    0.69824    0.91453    1.000
    N5085    N        0.82213    0.65661    0.88333    1.000
    Si5086   Si       0.84095    0.86717    0.03317    1.000
    N5087    N        0.85921    0.83101    0.04607    1.000
    Si5088   Si       0.83193    0.94732    0.21169    1.000
    N5089    N        0.85861    0.89289    0.06349    1.000
    N5090    N        0.84840    0.95810    0.06640    1.000
    Si5091   Si       0.83194    0.92132    0.08254    1.000
    Si5092   Si       0.83667    0.99138    0.08872    1.000
    N5093    N        0.85963    0.96073    0.00206    1.000
    N5094    N        0.84020    0.92946    0.12439    1.000
    N5095    N        0.86294    0.87809    0.17541    1.000
    Si5096   Si       0.86001    0.78027    0.14363    1.000
    N5097    N        0.84943    0.82036    0.15519    1.000
    N5098    N        0.83142    0.77867    0.21392    1.000
    Si5099   Si       0.82624    0.85080    0.17527    1.000
    N5100    N        0.81557    0.84815    0.21784    1.000
    N5101    N        0.83449    0.97742    0.24442    1.000
    Si5102   Si       0.81577    0.81016    0.23979    1.000
    N5103    N        0.86935    0.00377    0.19102    1.000
    N5104    N        0.86386    0.99100    0.12361    1.000
    N5105    N        0.87454    0.93533    0.21264    1.000
    N5106    N        0.84488    0.79832    0.34066    1.000
    N5107    N        0.84417    0.80930    0.27199    1.000
    N5108    N        0.83248    0.86965    0.33617    1.000
    Si5109   Si       0.86703    0.87980    0.36333    1.000
    N5110    N        0.84838    0.98218    0.37941    1.000
    Si5111   Si       0.87020    0.77789    0.28509    1.000
    N5112    N        0.84428    0.89806    0.26772    1.000
    Si5113   Si       0.84601    0.97203    0.28578    1.000
    Si5114   Si       0.83765    0.90763    0.31196    1.000
    N5115    N        0.86685    0.92210    0.34240    1.000
    N5116    N        0.81824    0.94657    0.30814    1.000
    Si5117   Si       0.84247    0.00779    0.34553    1.000
    N5118    N        0.85818    0.00749    0.30616    1.000
    Si5119   Si       0.84792    0.79799    0.47111    1.000
    N5120    N        0.85452    0.85035    0.39919    1.000
    N5121    N        0.81702    0.79324    0.44223    1.000
    Si5122   Si       0.82129    0.82660    0.41454    1.000
    N5123    N        0.86299    0.88908    0.46471    1.000
    N5124    N        0.83180    0.96085    0.47035    1.000
    Si5125   Si       0.86138    0.94163    0.38497    1.000
    Si5126   Si       0.85984    0.99113    0.48507    1.000
    Si5127   Si       0.84588    0.88712    0.42408    1.000
    N5128    N        0.82426    0.92133    0.40258    1.000
    Si5129   Si       0.84420    0.92146    0.48850    1.000
    N5130    N        0.85076    0.85620    0.56127    1.000
    N5131    N        0.83713    0.78514    0.56020    1.000
    Si5132   Si       0.82936    0.82582    0.54032    1.000
    Si5133   Si       0.86621    0.78954    0.59260    1.000
    Si5134   Si       0.82969    0.88721    0.58521    1.000
    N5135    N        0.86043    0.91750    0.59155    1.000
    N5136    N        0.84610    0.99731    0.52683    1.000
    N5137    N        0.84406    0.81245    0.62458    1.000
    N5138    N        0.81840    0.87480    0.62618    1.000
    N5139    N        0.84785    0.85034    0.68634    1.000
    Si5140   Si       0.82619    0.78286    0.65676    1.000
    Si5141   Si       0.85181    0.84952    0.64289    1.000
    N5142    N        0.86256    0.78632    0.68169    1.000
    Si5143   Si       0.87018    0.82001    0.71141    1.000
    Si5144   Si       0.83607    0.97445    0.73784    1.000
    N5145    N        0.85547    0.93628    0.65975    1.000
    N5146    N        0.87177    0.95364    0.72342    1.000
    Si5147   Si       0.81594    0.93243    0.68255    1.000
    N5148    N        0.81725    0.90380    0.71567    1.000
    N5149    N        0.86134    0.76588    0.49773    1.000
    N5150    N        0.83762    0.83282    0.49730    1.000
    N5151    N        0.83229    0.82054    0.81466    1.000
    Si5152   Si       0.82985    0.83575    0.77356    1.000
    Si5153   Si       0.82668    0.76808    0.75718    1.000
    N5154    N        0.84506    0.87506    0.77493    1.000
    N5155    N        0.81501    0.76392    0.84497    1.000
    N5156    N        0.84005    0.95694    0.84231    1.000
    Si5157   Si       0.85658    0.91974    0.85477    1.000
    Si5158   Si       0.84552    0.99984    0.83555    1.000
    N5159    N        0.82489    0.94705    0.77147    1.000
    Si5160   Si       0.81790    0.90605    0.75846    1.000
    N5161    N        0.82636    0.88781    0.86743    1.000
    N5162    N        0.82969    0.93036    0.94773    1.000
    N5163    N        0.84509    0.88758    0.99484    1.000
    N5164    N        0.84678    0.81682    0.95871    1.000
    Si5165   Si       0.83637    0.78461    0.98553    1.000
    N5166    N        0.86327    0.77148    0.89938    1.000
    Si5167   Si       0.84439    0.85366    0.88719    1.000
    Si5168   Si       0.83365    0.79323    0.92270    1.000
    Si5169   Si       0.86147    0.85737    0.96563    1.000
    N5170    N        0.86570    0.86745    0.92185    1.000
    Si5171   Si       0.86207    0.99938    0.97758    1.000
    Si5172   Si       0.86904    0.94359    0.93393    1.000
    N5173    N        0.86928    0.98675    0.93537    1.000
    Si5174   Si       0.82986    0.92989    0.99244    1.000
    N5175    N        0.81788    0.76225    0.95318    1.000
    N5176    N        0.85199    0.80422    0.74931    1.000
    N5177    N        0.90576    0.06473    0.03644    1.000
    Si5178   Si       0.91348    0.02456    0.02704    1.000
    N5179    N        0.88230    0.12677    0.02241    1.000
    Si5180   Si       0.90085    0.07797    0.11861    1.000
    Si5181   Si       0.87366    0.08951    0.04445    1.000
    N5182    N        0.88561    0.15696    0.08298    1.000
    Si5183   Si       0.91041    0.15053    0.04738    1.000
    Si5184   Si       0.90630    0.20466    0.00670    1.000
    N5185    N        0.89880    0.24838    0.00649    1.000
    N5186    N        0.87324    0.19975    0.03570    1.000
    Si5187   Si       0.88933    0.10003    0.19001    1.000
    N5188    N        0.91452    0.06889    0.21027    1.000
    N5189    N        0.90480    0.04512    0.14909    1.000
    N5190    N        0.89670    0.11028    0.14653    1.000
    N5191    N        0.88055    0.17863    0.14877    1.000
    N5192    N        0.88969    0.23619    0.18993    1.000
    Si5193   Si       0.89844    0.14864    0.12395    1.000
    Si5194   Si       0.90980    0.20383    0.16610    1.000
    Si5195   Si       0.89388    0.22793    0.23183    1.000
    N5196    N        0.89159    0.13773    0.21307    1.000
    N5197    N        0.87051    0.08330    0.08774    1.000
    N5198    N        0.91125    0.02522    0.26930    1.000
    Si5199   Si       0.92365    0.09028    0.31130    1.000
    N5200    N        0.88312    0.08142    0.30142    1.000
    N5201    N        0.93175    0.06484    0.34576    1.000
    N5202    N        0.92866    0.13161    0.32747    1.000
    Si5203   Si       0.89604    0.13765    0.35447    1.000
    Si5204   Si       0.89521    0.22557    0.33715    1.000
    N5205    N        0.92371    0.20213    0.31664    1.000
    Si5206   Si       0.89632    0.06092    0.37182    1.000
    N5207    N        0.88476    0.10181    0.37755    1.000
    N5208    N        0.90245    0.03508    0.40931    1.000
    Si5209   Si       0.88793    0.05000    0.44689    1.000
    N5210    N        0.92492    0.04191    0.46916    1.000
    N5211    N        0.88179    0.21361    0.43706    1.000
    N5212    N        0.89676    0.15992    0.39521    1.000
    Si5213   Si       0.89223    0.20247    0.39719    1.000
    N5214    N        0.92462    0.17068    0.46875    1.000
    Si5215   Si       0.92859    0.20803    0.49180    1.000
    Si5216   Si       0.88339    0.18007    0.46444    1.000
    Si5217   Si       0.89427    0.25552    0.44788    1.000
    Si5218   Si       0.90080    0.07601    0.54640    1.000
    N5219    N        0.90136    0.03378    0.54036    1.000
    N5220    N        0.90185    0.09525    0.50500    1.000
    Si5221   Si       0.87685    0.10223    0.61176    1.000
    Si5222   Si       0.92231    0.01681    0.50609    1.000
    Si5223   Si       0.90870    0.25257    0.70669    1.000
    N5224    N        0.89458    0.20296    0.57026    1.000
    N5225    N        0.88399    0.20226    0.50285    1.000
    N5226    N        0.91371    0.12238    0.62210    1.000
    N5227    N        0.88124    0.06832    0.64006    1.000
    N5228    N        0.88533    0.06392    0.70967    1.000
    Si5229   Si       0.90729    0.07807    0.67538    1.000
    N5230    N        0.92263    0.11703    0.68834    1.000
    Si5231   Si       0.88114    0.08969    0.74411    1.000
    Si5232   Si       0.87648    0.02718    0.62934    1.000
    N5233    N        0.91585    0.01197    0.61862    1.000
    N5234    N        0.90128    0.16558    0.72928    1.000
    N5235    N        0.90593    0.24213    0.66545    1.000
    Si5236   Si       0.91438    0.14743    0.65792    1.000
    Si5237   Si       0.90609    0.09528    0.79770    1.000
    Si5238   Si       0.88355    0.02390    0.77162    1.000
    N5239    N        0.91978    0.10397    0.75767    1.000
    Si5240   Si       0.92063    0.10122    0.86405    1.000
    N5241    N        0.88375    0.12864    0.81543    1.000
    N5242    N        0.87767    0.06598    0.78098    1.000
    Si5243   Si       0.87122    0.13357    0.97918    1.000
    N5244    N        0.89808    0.25646    0.82045    1.000
    Si5245   Si       0.90938    0.16325    0.82462    1.000
    Si5246   Si       0.91117    0.22952    0.85212    1.000
    Si5247   Si       0.90812    0.19647    0.75961    1.000
    N5248    N        0.88741    0.19171    0.84931    1.000
    Si5249   Si       0.87393    0.17356    0.88798    1.000
    N5250    N        0.90648    0.24920    0.88897    1.000
    N5251    N        0.87810    0.10071    0.87375    1.000
    N5252    N        0.89960    0.01956    0.98699    1.000
    N5253    N        0.89445    0.04659    0.92055    1.000
    Si5254   Si       0.92370    0.03616    0.95337    1.000
    N5255    N        0.88797    0.10832    0.94781    1.000
    Si5256   Si       0.87893    0.01033    0.90015    1.000
    Si5257   Si       0.87364    0.08486    0.91409    1.000
    N5258    N        0.91289    0.17761    0.90903    1.000
    N5259    N        0.88686    0.17621    0.97485    1.000
    Si5260   Si       0.92493    0.17919    0.95118    1.000
    N5261    N        0.92190    0.02277    0.74975    1.000
    Si5262   Si       0.90092    0.28185    0.09844    1.000
    Si5263   Si       0.91176    0.35071    0.07193    1.000
    N5264    N        0.88507    0.31935    0.08607    1.000
    Si5265   Si       0.91957    0.28182    0.02664    1.000
    N5266    N        0.92165    0.35599    0.02845    1.000
    N5267    N        0.88848    0.30904    0.00553    1.000
    N5268    N        0.87286    0.37877    0.07076    1.000
    N5269    N        0.90241    0.45036    0.10313    1.000
    Si5270   Si       0.87783    0.41403    0.09652    1.000
    N5271    N        0.87292    0.43112    0.01570    1.000
    N5272    N        0.91376    0.28200    0.13926    1.000
    N5273    N        0.89256    0.30561    0.20230    1.000
    Si5274   Si       0.88593    0.27497    0.17258    1.000
    Si5275   Si       0.91071    0.38264    0.16346    1.000
    N5276    N        0.89695    0.38579    0.20439    1.000
    Si5277   Si       0.92226    0.42148    0.21602    1.000
    Si5278   Si       0.91696    0.49442    0.18739    1.000
    N5279    N        0.87844    0.39186    0.13514    1.000
    N5280    N        0.89845    0.46071    0.21007    1.000
    N5281    N        0.93182    0.27653    0.06787    1.000
    N5282    N        0.90141    0.31874    0.28090    1.000
    N5283    N        0.91041    0.26735    0.32653    1.000
    Si5284   Si       0.88087    0.27933    0.29711    1.000
    N5285    N        0.87462    0.38186    0.29344    1.000
    N5286    N        0.90229    0.49034    0.27894    1.000
    Si5287   Si       0.89346    0.47020    0.31606    1.000
    Si5288   Si       0.91119    0.40314    0.29599    1.000
    N5289    N        0.90609    0.49609    0.34985    1.000
    N5290    N        0.91745    0.43452    0.32429    1.000
    N5291    N        0.91675    0.42570    0.25967    1.000
    Si5292   Si       0.90889    0.30679    0.38401    1.000
    N5293    N        0.89922    0.27621    0.41152    1.000
    N5294    N        0.90552    0.34209    0.41336    1.000
    N5295    N        0.88176    0.35662    0.48964    1.000
    N5296    N        0.87519    0.25930    0.25474    1.000
    N5297    N        0.87572    0.49779    0.42455    1.000
    N5298    N        0.89796    0.40926    0.43507    1.000
    Si5299   Si       0.90369    0.39041    0.47429    1.000
    N5300    N        0.92695    0.45039    0.39214    1.000
    Si5301   Si       0.89415    0.47761    0.38850    1.000
    Si5302   Si       0.86402    0.34153    0.28441    1.000
    Si5303   Si       0.92644    0.47058    0.24659    1.000
    Si5304   Si       0.90502    0.28323    0.56824    1.000
    N5305    N        0.92198    0.31899    0.58654    1.000
    N5306    N        0.88077    0.30613    0.53819    1.000
    Si5307   Si       0.89105    0.33461    0.61331    1.000
    N5308    N        0.88005    0.26626    0.60011    1.000
    N5309    N        0.88691    0.45796    0.55320    1.000
    Si5310   Si       0.91965    0.45139    0.58143    1.000
    N5311    N        0.89027    0.43936    0.61413    1.000
    N5312    N        0.90704    0.42531    0.49839    1.000
    N5313    N        0.89204    0.41084    0.68522    1.000
    N5314    N        0.90779    0.37393    0.62640    1.000
    N5315    N        0.91308    0.34619    0.71321    1.000
    N5316    N        0.90108    0.31200    0.64919    1.000
    Si5317   Si       0.88756    0.27302    0.64170    1.000
    Si5318   Si       0.88426    0.38079    0.71908    1.000
    Si5319   Si       0.93067    0.31561    0.73943    1.000
    Si5320   Si       0.92973    0.32241    0.67917    1.000
    N5321    N        0.91309    0.45697    0.73327    1.000
    Si5322   Si       0.89629    0.45388    0.69306    1.000
    Si5323   Si       0.88346    0.40645    0.64185    1.000
    Si5324   Si       0.87271    0.44591    0.51502    1.000
    Si5325   Si       0.89746    0.31251    0.49698    1.000
    N5326    N        0.90386    0.29355    0.76171    1.000
    Si5327   Si       0.89406    0.35974    0.86563    1.000
    Si5328   Si       0.92541    0.27953    0.79806    1.000
    N5329    N        0.90920    0.38655    0.83404    1.000
    N5330    N        0.89313    0.39476    0.76037    1.000
    N5331    N        0.90766    0.50504    0.83839    1.000
    Si5332   Si       0.87690    0.38878    0.80199    1.000
    Si5333   Si       0.92692    0.42353    0.75770    1.000
    N5334    N        0.91685    0.44422    0.87022    1.000
    Si5335   Si       0.92279    0.32185    0.92412    1.000
    N5336    N        0.92017    0.33054    0.88184    1.000
    Si5337   Si       0.87999    0.27356    0.97578    1.000
    N5338    N        0.89185    0.29522    0.93761    1.000
    Si5339   Si       0.89875    0.34867    0.98980    1.000
    N5340    N        0.92556    0.35187    0.95524    1.000
    Si5341   Si       0.87493    0.26392    0.91360    1.000
    Si5342   Si       0.89409    0.48053    0.87172    1.000
    Si5343   Si       0.90450    0.43331    0.98607    1.000
    N5344    N        0.88600    0.38616    0.90316    1.000
    Si5345   Si       0.90940    0.42027    0.90795    1.000
    N5346    N        0.89202    0.43942    0.94243    1.000
    Si5347   Si       0.89019    0.48322    0.94921    1.000
    N5348    N        0.89663    0.50425    0.91064    1.000
    N5349    N        0.91474    0.47832    0.98517    1.000
    Si5350   Si       0.91123    0.59154    0.03396    1.000
    Si5351   Si       0.90335    0.52443    0.06377    1.000
    N5352    N        0.88315    0.55923    0.04530    1.000
    N5353    N        0.91127    0.51522    0.10536    1.000
    N5354    N        0.89442    0.63060    0.02862    1.000
    N5355    N        0.89927    0.65926    0.08873    1.000
    N5356    N        0.92277    0.73244    0.08311    1.000
    Si5357   Si       0.92402    0.70762    0.04360    1.000
    N5358    N        0.87935    0.70461    0.04416    1.000
    N5359    N        0.87068    0.70865    0.11983    1.000
    Si5360   Si       0.88370    0.53370    0.13300    1.000
    Si5361   Si       0.91054    0.61576    0.20382    1.000
    N5362    N        0.87687    0.59118    0.19216    1.000
    N5363    N        0.89134    0.52575    0.17481    1.000
    N5364    N        0.92734    0.59600    0.23927    1.000
    N5365    N        0.90402    0.65724    0.21222    1.000
    N5366    N        0.88443    0.63881    0.14464    1.000
    Si5367   Si       0.92667    0.64725    0.14102    1.000
    Si5368   Si       0.87417    0.73308    0.08220    1.000
    N5369    N        0.87570    0.57345    0.12343    1.000
    N5370    N        0.90170    0.57511    0.30606    1.000
    Si5371   Si       0.89194    0.58428    0.26422    1.000
    N5372    N        0.89478    0.69156    0.33999    1.000
    Si5373   Si       0.91153    0.72166    0.25700    1.000
    N5374    N        0.88094    0.69094    0.26723    1.000
    N5375    N        0.88748    0.75810    0.24984    1.000
    N5376    N        0.90946    0.55744    0.41289    1.000
    Si5377   Si       0.91378    0.59841    0.39542    1.000
    N5378    N        0.88827    0.55688    0.47948    1.000
    Si5379   Si       0.87824    0.54009    0.43741    1.000
    N5380    N        0.87555    0.61609    0.40237    1.000
    Si5381   Si       0.92886    0.55191    0.49156    1.000
    N5382    N        0.90710    0.64465    0.46504    1.000
    N5383    N        0.89040    0.68548    0.41610    1.000
    Si5384   Si       0.91246    0.75952    0.38908    1.000
    N5385    N        0.90555    0.70773    0.48708    1.000
    Si5386   Si       0.87483    0.64755    0.43314    1.000
    N5387    N        0.91629    0.74677    0.43111    1.000
    Si5388   Si       0.91921    0.70525    0.44511    1.000
    Si5389   Si       0.87229    0.69992    0.38018    1.000
    N5390    N        0.87036    0.74239    0.37765    1.000
    Si5391   Si       0.90426    0.56391    0.55560    1.000
    N5392    N        0.90906    0.56163    0.59910    1.000
    Si5393   Si       0.90454    0.51867    0.60688    1.000
    N5394    N        0.91350    0.60346    0.54247    1.000
    Si5395   Si       0.87558    0.62553    0.54841    1.000
    Si5396   Si       0.90103    0.59811    0.61912    1.000
    N5397    N        0.91893    0.70115    0.61099    1.000
    N5398    N        0.89605    0.73691    0.55048    1.000
    Si5399   Si       0.90083    0.74704    0.50472    1.000
    N5400    N        0.88486    0.66583    0.53637    1.000
    Si5401   Si       0.90998    0.66672    0.50208    1.000
    Si5402   Si       0.93393    0.71945    0.70447    1.000
    Si5403   Si       0.88062    0.71524    0.62433    1.000
    N5404    N        0.92778    0.75247    0.67652    1.000
    Si5405   Si       0.91779    0.61825    0.67792    1.000
    N5406    N        0.89283    0.58527    0.66101    1.000
    N5407    N        0.89359    0.51316    0.64810    1.000
    N5408    N        0.92781    0.63078    0.63570    1.000
    N5409    N        0.93242    0.68494    0.67773    1.000
    N5410    N        0.88849    0.64014    0.70237    1.000
    Si5411   Si       0.89069    0.68178    0.69237    1.000
    N5412    N        0.89856    0.70812    0.72601    1.000
    N5413    N        0.89928    0.60911    0.81040    1.000
    Si5414   Si       0.87821    0.60271    0.84829    1.000
    Si5415   Si       0.89752    0.61678    0.76789    1.000
    Si5416   Si       0.88524    0.54646    0.75471    1.000
    N5417    N        0.90727    0.51259    0.77002    1.000
    N5418    N        0.91189    0.57960    0.75183    1.000
    Si5419   Si       0.88002    0.51378    0.80570    1.000
    Si5420   Si       0.89349    0.68738    0.76379    1.000
    N5421    N        0.90638    0.70992    0.79787    1.000
    N5422    N        0.91937    0.65288    0.76350    1.000
    Si5423   Si       0.89529    0.75129    0.79239    1.000
    N5424    N        0.88824    0.63958    0.87231    1.000
    N5425    N        0.89369    0.57057    0.87564    1.000
    Si5426   Si       0.91821    0.58522    0.95604    1.000
    N5427    N        0.88038    0.56548    0.94378    1.000
    N5428    N        0.90709    0.62645    0.95604    1.000
    Si5429   Si       0.87719    0.54434    0.90429    1.000
    N5430    N        0.92694    0.74784    0.89049    1.000
    N5431    N        0.89362    0.74762    0.95422    1.000
    N5432    N        0.87509    0.68178    0.97967    1.000
    N5433    N        0.92808    0.69370    0.93691    1.000
    Si5434   Si       0.87776    0.63833    0.98687    1.000
    Si5435   Si       0.88731    0.70500    0.94615    1.000
    Si5436   Si       0.90896    0.75947    0.99212    1.000
    N5437    N        0.93071    0.57638    0.99754    1.000
    Si5438   Si       0.89410    0.81658    0.01717    1.000
    N5439    N        0.89192    0.85031    0.10810    1.000
    N5440    N        0.91369    0.80261    0.05672    1.000
    N5441    N        0.88339    0.77974    0.10818    1.000
    Si5442   Si       0.88060    0.81706    0.08183    1.000
    N5443    N        0.92849    0.87025    0.05483    1.000
    Si5444   Si       0.92813    0.77481    0.09709    1.000
    N5445    N        0.87235    0.77748    0.00705    1.000
    Si5446   Si       0.91599    0.88390    0.01418    1.000
    Si5447   Si       0.89785    0.88561    0.08329    1.000
    N5448    N        0.91308    0.92694    0.02762    1.000
    N5449    N        0.90690    0.98960    0.05242    1.000
    N5450    N        0.90713    0.91964    0.10811    1.000
    Si5451   Si       0.88209    0.95603    0.03850    1.000
    Si5452   Si       0.88378    0.84525    0.14993    1.000
    N5453    N        0.91861    0.82801    0.17118    1.000
    N5454    N        0.88520    0.76246    0.17503    1.000
    Si5455   Si       0.92411    0.78430    0.17608    1.000
    N5456    N        0.92713    0.97671    0.22820    1.000
    Si5457   Si       0.89659    0.96973    0.19689    1.000
    N5458    N        0.90929    0.95314    0.15802    1.000
    Si5459   Si       0.89513    0.89789    0.19674    1.000
    N5460    N        0.90802    0.88953    0.23792    1.000
    N5461    N        0.93063    0.89450    0.17274    1.000
    Si5462   Si       0.87850    0.94995    0.12672    1.000
    N5463    N        0.90497    0.79525    0.30499    1.000
    N5464    N        0.89708    0.85591    0.34494    1.000
    Si5465   Si       0.88523    0.81293    0.34072    1.000
    Si5466   Si       0.90270    0.94149    0.32377    1.000
    N5467    N        0.91598    0.96830    0.35578    1.000
    N5468    N        0.88733    0.95253    0.28329    1.000
    Si5469   Si       0.91871    0.98373    0.27033    1.000
    Si5470   Si       0.88102    0.91944    0.25528    1.000
    Si5471   Si       0.87295    0.00093    0.41287    1.000
    Si5472   Si       0.89421    0.83384    0.40864    1.000
    N5473    N        0.90047    0.79978    0.37926    1.000
    N5474    N        0.88116    0.82080    0.45005    1.000
    Si5475   Si       0.87795    0.85281    0.48108    1.000
    N5476    N        0.88981    0.96129    0.41968    1.000
    N5477    N        0.90238    0.98109    0.49310    1.000
    N5478    N        0.88428    0.90341    0.39752    1.000
    Si5479   Si       0.91361    0.92491    0.42453    1.000
    N5480    N        0.92925    0.91848    0.46424    1.000
    N5481    N        0.89883    0.81370    0.57511    1.000
    Si5482   Si       0.89433    0.85163    0.55389    1.000
    N5483    N        0.90697    0.84247    0.51184    1.000
    N5484    N        0.91576    0.88951    0.56085    1.000
    N5485    N        0.89701    0.96716    0.57170    1.000
    Si5486   Si       0.89044    0.92541    0.56012    1.000
    Si5487   Si       0.92551    0.97095    0.60407    1.000
    N5488    N        0.87568    0.92470    0.51791    1.000
    Si5489   Si       0.87576    0.00275    0.55971    1.000
    Si5490   Si       0.91301    0.94000    0.49851    1.000
    N5491    N        0.91826    0.93637    0.63316    1.000
    Si5492   Si       0.92933    0.85177    0.63490    1.000
    N5493    N        0.92357    0.81160    0.65424    1.000
    Si5494   Si       0.89736    0.77610    0.65669    1.000
    N5495    N        0.88862    0.87258    0.63332    1.000
    N5496    N        0.90718    0.83666    0.72664    1.000
    Si5497   Si       0.93198    0.87348    0.72842    1.000
    Si5498   Si       0.91576    0.94491    0.72518    1.000
    N5499    N        0.91628    0.97948    0.69342    1.000
    Si5500   Si       0.88071    0.91535    0.63053    1.000
    Si5501   Si       0.87491    0.96949    0.68265    1.000
    N5502    N        0.91820    0.90632    0.70198    1.000
    N5503    N        0.88294    0.75800    0.61789    1.000
    N5504    N        0.89769    0.83641    0.79633    1.000
    Si5505   Si       0.91791    0.81737    0.76400    1.000
    N5506    N        0.88981    0.77332    0.83165    1.000
    N5507    N        0.92043    0.77461    0.76535    1.000
    N5508    N        0.87970    0.83373    0.86649    1.000
    Si5509   Si       0.88545    0.87723    0.79100    1.000
    Si5510   Si       0.87509    0.81512    0.82660    1.000
    Si5511   Si       0.93045    0.77145    0.85211    1.000
    N5512    N        0.91545    0.89577    0.76573    1.000
    Si5513   Si       0.91728    0.98710    0.83146    1.000
    N5514    N        0.88337    0.90239    0.82562    1.000
    N5515    N        0.88348    0.00203    0.81020    1.000
    N5516    N        0.92129    0.80751    0.92401    1.000
    Si5517   Si       0.90228    0.76960    0.91851    1.000
    Si5518   Si       0.91747    0.83346    0.88733    1.000
    N5519    N        0.90617    0.92191    0.94659    1.000
    Si5520   Si       0.89828    0.89592    0.91290    1.000
    N5521    N        0.87337    0.92692    0.89376    1.000
    N5522    N        0.90930    0.99198    0.87517    1.000
    N5523    N        0.89632    0.85316    0.99184    1.000
    N5524    N        0.95443    0.03121    0.04580    1.000
    N5525    N        0.93936    0.12034    0.06226    1.000
    N5526    N        0.94039    0.06989    0.10112    1.000
    Si5527   Si       0.94716    0.07675    0.05672    1.000
    Si5528   Si       0.96529    0.13725    0.09237    1.000
    Si5529   Si       0.97845    0.18240    0.03477    1.000
    N5530    N        0.93669    0.18030    0.03007    1.000
    N5531    N        0.98874    0.16941    0.07664    1.000
    Si5532   Si       0.97913    0.07109    0.12250    1.000
    N5533    N        0.97177    0.07383    0.16515    1.000
    N5534    N        0.96432    0.12304    0.21528    1.000
    N5535    N        0.97010    0.03217    0.23022    1.000
    Si5536   Si       0.93750    0.04874    0.17735    1.000
    N5537    N        0.95907    0.00844    0.17008    1.000
    N5538    N        0.94466    0.22402    0.14267    1.000
    Si5539   Si       0.93224    0.15207    0.21940    1.000
    N5540    N        0.94190    0.15530    0.12473    1.000
    N5541    N        0.93470    0.22883    0.23961    1.000
    Si5542   Si       0.96952    0.24847    0.22288    1.000
    N5543    N        0.94033    0.18148    0.18822    1.000
    Si5544   Si       0.96393    0.18528    0.14852    1.000
    Si5545   Si       0.97311    0.06057    0.36211    1.000
    N5546    N        0.94625    0.08528    0.27453    1.000
    Si5547   Si       0.96586    0.11949    0.25773    1.000
    N5548    N        0.98720    0.03281    0.33009    1.000
    Si5549   Si       0.93529    0.05214    0.24581    1.000
    N5550    N        0.98263    0.18095    0.31481    1.000
    N5551    N        0.97842    0.25236    0.32914    1.000
    Si5552   Si       0.96163    0.21129    0.33993    1.000
    N5553    N        0.94212    0.15632    0.26183    1.000
    Si5554   Si       0.94260    0.16494    0.30416    1.000
    Si5555   Si       0.97847    0.09830    0.42282    1.000
    Si5556   Si       0.93867    0.08036    0.48641    1.000
    Si5557   Si       0.94904    0.03147    0.43281    1.000
    N5558    N        0.96456    0.06193    0.40579    1.000
    N5559    N        0.96023    0.10972    0.46308    1.000
    N5560    N        0.98836    0.02146    0.45717    1.000
    Si5561   Si       0.95910    0.22377    0.40735    1.000
    N5562    N        0.97818    0.19672    0.43605    1.000
    N5563    N        0.97255    0.14031    0.41124    1.000
    Si5564   Si       0.96162    0.15486    0.45218    1.000
    N5565    N        0.93091    0.24437    0.47103    1.000
    N5566    N        0.92907    0.21778    0.37672    1.000
    Si5567   Si       0.94970    0.09949    0.60795    1.000
    Si5568   Si       0.97479    0.08744    0.54886    1.000
    N5569    N        0.97221    0.06728    0.51011    1.000
    N5570    N        0.93637    0.08790    0.56850    1.000
    N5571    N        0.97116    0.06167    0.61619    1.000
    N5572    N        0.98142    0.12672    0.53076    1.000
    N5573    N        0.98116    0.12486    0.62181    1.000
    N5574    N        0.95837    0.17595    0.57976    1.000
    N5575    N        0.95525    0.20071    0.52280    1.000
    Si5576   Si       0.98188    0.16883    0.54152    1.000
    Si5577   Si       0.93574    0.21389    0.56571    1.000
    N5578    N        0.95669    0.23995    0.61167    1.000
    Si5579   Si       0.97136    0.16744    0.61881    1.000
    Si5580   Si       0.95196    0.02810    0.63852    1.000
    N5581    N        0.93506    0.04514    0.67361    1.000
    Si5582   Si       0.93433    0.01683    0.70742    1.000
    Si5583   Si       0.92994    0.13395    0.72807    1.000
    N5584    N        0.96902    0.14971    0.73412    1.000
    N5585    N        0.97767    0.23673    0.67414    1.000
    Si5586   Si       0.94198    0.22393    0.64988    1.000
    N5587    N        0.94367    0.18090    0.65046    1.000
    N5588    N        0.93017    0.22620    0.73829    1.000
    Si5589   Si       0.96315    0.04745    0.83265    1.000
    N5590    N        0.94682    0.01130    0.81278    1.000
    Si5591   Si       0.97878    0.13398    0.84974    1.000
    Si5592   Si       0.97652    0.23537    0.83034    1.000
    N5593    N        0.94875    0.20791    0.84833    1.000
    Si5594   Si       0.97368    0.16402    0.77694    1.000
    Si5595   Si       0.97025    0.23464    0.75532    1.000
    N5596    N        0.93602    0.14152    0.85347    1.000
    N5597    N        0.96117    0.25380    0.79337    1.000
    N5598    N        0.96345    0.03637    0.87414    1.000
    N5599    N        0.94011    0.09557    0.90269    1.000
    Si5600   Si       0.97624    0.07130    0.89512    1.000
    N5601    N        0.94906    0.07008    0.96283    1.000
    Si5602   Si       0.94933    0.18168    0.88437    1.000
    N5603    N        0.94694    0.14293    0.96062    1.000
    N5604    N        0.94011    0.21046    0.97625    1.000
    Si5605   Si       0.93140    0.10584    0.94366    1.000
    N5606    N        0.96379    0.21807    0.91174    1.000
    Si5607   Si       0.97008    0.23980    0.99291    1.000
    N5608    N        0.93339    0.07897    0.82817    1.000
    N5609    N        0.93158    0.17599    0.78902    1.000
    N5610    N        0.95031    0.34084    0.08581    1.000
    Si5611   Si       0.96679    0.29902    0.08570    1.000
    Si5612   Si       0.98010    0.37265    0.08574    1.000
    N5613    N        0.95730    0.27909    0.00307    1.000
    N5614    N        0.98672    0.34929    0.00789    1.000
    N5615    N        0.93951    0.50833    0.22307    1.000
    Si5616   Si       0.95649    0.38064    0.01787    1.000
    Si5617   Si       0.94853    0.49198    0.00853    1.000
    N5618    N        0.96831    0.47855    0.09095    1.000
    N5619    N        0.97015    0.40231    0.05593    1.000
    N5620    N        0.97647    0.46056    0.02431    1.000
    Si5621   Si       0.98027    0.44366    0.06463    1.000
    Si5622   Si       0.93283    0.47823    0.11609    1.000
    N5623    N        0.98379    0.28449    0.12496    1.000
    N5624    N        0.95721    0.27941    0.19384    1.000
    N5625    N        0.95451    0.33573    0.23730    1.000
    Si5626   Si       0.97082    0.37688    0.16442    1.000
    N5627    N        0.93769    0.34811    0.16785    1.000
    Si5628   Si       0.93625    0.31936    0.19962    1.000
    Si5629   Si       0.95287    0.26791    0.14978    1.000
    N5630    N        0.96047    0.45018    0.22210    1.000
    N5631    N        0.94148    0.41059    0.17441    1.000
    N5632    N        0.98286    0.39094    0.12471    1.000
    Si5633   Si       0.96568    0.44634    0.17718    1.000
    N5634    N        0.94051    0.47614    0.15779    1.000
    Si5635   Si       0.94257    0.33400    0.27942    1.000
    N5636    N        0.96604    0.30571    0.29990    1.000
    N5637    N        0.94882    0.37624    0.29508    1.000
    Si5638   Si       0.94908    0.28375    0.33188    1.000
    N5639    N        0.94738    0.30720    0.36756    1.000
    N5640    N        0.97433    0.47529    0.34367    1.000
    Si5641   Si       0.94641    0.44272    0.35423    1.000
    N5642    N        0.97437    0.40873    0.35010    1.000
    Si5643   Si       0.98623    0.38980    0.31276    1.000
    N5644    N        0.94136    0.37186    0.46784    1.000
    Si5645   Si       0.97789    0.29860    0.39466    1.000
    N5646    N        0.97986    0.33324    0.42348    1.000
    Si5647   Si       0.94392    0.35784    0.42639    1.000
    Si5648   Si       0.96086    0.27588    0.46160    1.000
    N5649    N        0.93983    0.30888    0.48548    1.000
    N5650    N        0.96343    0.26447    0.41801    1.000
    Si5651   Si       0.96268    0.34477    0.49433    1.000
    Si5652   Si       0.96979    0.49181    0.48022    1.000
    N5653    N        0.95932    0.39661    0.41335    1.000
    N5654    N        0.96021    0.45313    0.45588    1.000
    Si5655   Si       0.93540    0.42837    0.42801    1.000
    N5656    N        0.99653    0.48651    0.27821    1.000
    Si5657   Si       0.95889    0.33293    0.57070    1.000
    N5658    N        0.97382    0.36556    0.59730    1.000
    N5659    N        0.96152    0.35644    0.53587    1.000
    Si5660   Si       0.97424    0.26412    0.58183    1.000
    N5661    N        0.93732    0.25841    0.55671    1.000
    Si5662   Si       0.94622    0.43304    0.51739    1.000
    N5663    N        0.94541    0.42417    0.56361    1.000
    N5664    N        0.95429    0.47675    0.51787    1.000
    Si5665   Si       0.97689    0.39448    0.55498    1.000
    Si5666   Si       0.97125    0.50183    0.60747    1.000
    N5667    N        0.98270    0.41197    0.51309    1.000
    N5668    N        0.98754    0.46172    0.61699    1.000
    Si5669   Si       0.94982    0.37265    0.63223    1.000
    N5670    N        0.93961    0.28668    0.70573    1.000
    Si5671   Si       0.98217    0.27360    0.70065    1.000
    N5672    N        0.96386    0.33957    0.66035    1.000
    Si5673   Si       0.93353    0.49496    0.74104    1.000
    N5674    N        0.96278    0.40498    0.65705    1.000
    N5675    N        0.96202    0.40629    0.73603    1.000
    N5676    N        0.93270    0.46488    0.66943    1.000
    Si5677   Si       0.96883    0.44800    0.65351    1.000
    Si5678   Si       0.98109    0.40744    0.69719    1.000
    N5679    N        0.93368    0.49057    0.59048    1.000
    Si5680   Si       0.97444    0.33356    0.79539    1.000
    N5681    N        0.94374    0.31393    0.81835    1.000
    Si5682   Si       0.95364    0.31042    0.85890    1.000
    N5683    N        0.96385    0.26795    0.86127    1.000
    N5684    N        0.98259    0.37599    0.79578    1.000
    N5685    N        0.96666    0.33314    0.75294    1.000
    Si5686   Si       0.98725    0.37321    0.75231    1.000
    N5687    N        0.93910    0.43828    0.79820    1.000
    N5688    N        0.97465    0.41838    0.85274    1.000
    Si5689   Si       0.97704    0.46081    0.79256    1.000
    N5690    N        0.98297    0.49526    0.82028    1.000
    N5691    N        0.97341    0.48029    0.75377    1.000
    Si5692   Si       0.93408    0.42313    0.83768    1.000
    N5693    N        0.95834    0.29676    0.91725    1.000
    N5694    N        0.99122    0.35540    0.94062    1.000
    N5695    N        0.93508    0.40359    0.98699    1.000
    Si5696   Si       0.95857    0.38362    0.95176    1.000
    Si5697   Si       0.98107    0.43279    0.89323    1.000
    N5698    N        0.95159    0.41158    0.91869    1.000
    Si5699   Si       0.95007    0.25681    0.90015    1.000
    N5700    N        0.94063    0.60138    0.06155    1.000
    Si5701   Si       0.97718    0.57986    0.07319    1.000
    N5702    N        0.98117    0.55184    0.10527    1.000
    N5703    N        0.93592    0.51580    0.04073    1.000
    Si5704   Si       0.97232    0.56155    0.99850    1.000
    N5705    N        0.93725    0.73132    0.00964    1.000
    N5706    N        0.95776    0.64078    0.11159    1.000
    Si5707   Si       0.98423    0.67362    0.01530    1.000
    N5708    N        0.95487    0.67682    0.04688    1.000
    N5709    N        0.97990    0.72057    0.11512    1.000
    Si5710   Si       0.93833    0.64499    0.07341    1.000
    Si5711   Si       0.97523    0.53068    0.21464    1.000
    N5712    N        0.94316    0.61839    0.17381    1.000
    Si5713   Si       0.98194    0.60295    0.18566    1.000
    N5714    N        0.98277    0.56059    0.18171    1.000
    Si5715   Si       0.93647    0.72107    0.12395    1.000
    N5716    N        0.97862    0.67266    0.20181    1.000
    N5717    N        0.93259    0.71727    0.21971    1.000
    Si5718   Si       0.98883    0.75323    0.14187    1.000
    Si5719   Si       0.93655    0.68147    0.19549    1.000
    Si5720   Si       0.97030    0.73930    0.21441    1.000
    N5721    N        0.93134    0.68967    0.15369    1.000
    N5722    N        0.96260    0.53855    0.31901    1.000
    N5723    N        0.96608    0.60648    0.29714    1.000
    Si5724   Si       0.94388    0.58010    0.32126    1.000
    Si5725   Si       0.96889    0.59365    0.25485    1.000
    N5726    N        0.94391    0.59201    0.36240    1.000
    N5727    N        0.98169    0.55237    0.25167    1.000
    Si5728   Si       0.94791    0.51093    0.34833    1.000
    N5729    N        0.96985    0.67468    0.33699    1.000
    N5730    N        0.94049    0.74003    0.35858    1.000
    Si5731   Si       0.98164    0.71195    0.28397    1.000
    Si5732   Si       0.98392    0.64441    0.30525    1.000
    N5733    N        0.93825    0.71513    0.29013    1.000
    Si5734   Si       0.93547    0.70439    0.33307    1.000
    Si5735   Si       0.94770    0.53914    0.42372    1.000
    N5736    N        0.94317    0.62046    0.41761    1.000
    N5737    N        0.98186    0.56563    0.42736    1.000
    N5738    N        0.94165    0.52199    0.46430    1.000
    Si5739   Si       0.97792    0.60333    0.39315    1.000
    N5740    N        0.95220    0.58611    0.48789    1.000
    N5741    N        0.96031    0.51444    0.39074    1.000
    N5742    N        0.98298    0.74852    0.44854    1.000
    N5743    N        0.95831    0.68632    0.44758    1.000
    Si5744   Si       0.95115    0.64290    0.45426    1.000
    N5745    N        0.99443    0.66960    0.27225    1.000
    Si5746   Si       0.95106    0.60942    0.52322    1.000
    Si5747   Si       0.96465    0.51120    0.53937    1.000
    N5748    N        0.93105    0.53915    0.53417    1.000
    N5749    N        0.98172    0.65925    0.73694    1.000
    Si5750   Si       0.94189    0.67181    0.63581    1.000
    N5751    N        0.96063    0.70779    0.55858    1.000
    N5752    N        0.95263    0.65231    0.51385    1.000
    Si5753   Si       0.97963    0.68203    0.52974    1.000
    N5754    N        0.98063    0.68546    0.62696    1.000
    N5755    N        0.96300    0.52180    0.64641    1.000
    N5756    N        0.94883    0.60318    0.70391    1.000
    Si5757   Si       0.94315    0.56430    0.72290    1.000
    Si5758   Si       0.92833    0.51115    0.67068    1.000
    N5759    N        0.93369    0.52576    0.71052    1.000
    N5760    N        0.96625    0.72906    0.73072    1.000
    Si5761   Si       0.98890    0.62346    0.71279    1.000
    Si5762   Si       0.92939    0.73125    0.57908    1.000
    N5763    N        0.97039    0.61182    0.78985    1.000
    N5764    N        0.94645    0.60796    0.85850    1.000
    Si5765   Si       0.94951    0.51990    0.83299    1.000
    N5766    N        0.95136    0.55536    0.81013    1.000
    Si5767   Si       0.94044    0.59661    0.81677    1.000
    Si5768   Si       0.98403    0.56966    0.78393    1.000
    N5769    N        0.93595    0.68889    0.86126    1.000
    Si5770   Si       0.96110    0.65034    0.77283    1.000
    N5771    N        0.97122    0.68335    0.79882    1.000
    Si5772   Si       0.94272    0.70716    0.82185    1.000
    N5773    N        0.95432    0.74869    0.82547    1.000
    N5774    N        0.96198    0.53750    0.87232    1.000
    N5775    N        0.94809    0.57647    0.92802    1.000
    N5776    N        0.97106    0.52024    0.98455    1.000
    Si5777   Si       0.93912    0.57426    0.88361    1.000
    N5778    N        0.98964    0.72088    0.90375    1.000
    Si5779   Si       0.94745    0.71026    0.90012    1.000
    N5780    N        0.95778    0.64532    0.91001    1.000
    Si5781   Si       0.93220    0.64827    0.87390    1.000
    Si5782   Si       0.97713    0.74165    0.99213    1.000
    Si5783   Si       0.94098    0.65367    0.94919    1.000
    N5784    N        0.96632    0.64963    0.98325    1.000
    Si5785   Si       0.99105    0.57620    0.93342    1.000
    N5786    N        0.98016    0.55815    0.74519    1.000
    Si5787   Si       0.97131    0.86526    0.06090    1.000
    Si5788   Si       0.95550    0.79975    0.03832    1.000
    N5789    N        0.96635    0.79049    0.08324    1.000
    N5790    N        0.98112    0.83623    0.02886    1.000
    Si5791   Si       0.93550    0.92330    0.14040    1.000
    N5792    N        0.97311    0.96518    0.05141    1.000
    N5793    N        0.95941    0.97546    0.10833    1.000
    Si5794   Si       0.95648    0.93414    0.02234    1.000
    Si5795   Si       0.94773    0.99522    0.07167    1.000
    Si5796   Si       0.97968    0.93814    0.08880    1.000
    N5797    N        0.98594    0.90449    0.05408    1.000
    N5798    N        0.97479    0.91239    0.12360    1.000
    N5799    N        0.94283    0.76179    0.14112    1.000
    N5800    N        0.95919    0.84803    0.22354    1.000
    N5801    N        0.95253    0.78030    0.20831    1.000
    Si5802   Si       0.94924    0.85676    0.18193    1.000
    Si5803   Si       0.97347    0.80886    0.23279    1.000
    N5804    N        0.99020    0.85578    0.16543    1.000
    Si5805   Si       0.96391    0.99335    0.21096    1.000
    Si5806   Si       0.98407    0.99837    0.13740    1.000
    Si5807   Si       0.94656    0.81152    0.30136    1.000
    N5808    N        0.96446    0.80359    0.34131    1.000
    N5809    N        0.97451    0.79567    0.27391    1.000
    N5810    N        0.94306    0.85253    0.29141    1.000
    Si5811   Si       0.94571    0.87500    0.25450    1.000
    N5812    N        0.97002    0.87342    0.35703    1.000
    Si5813   Si       0.93383    0.87210    0.32999    1.000
    Si5814   Si       0.97738    0.76239    0.34700    1.000
    N5815    N        0.97089    0.91001    0.25588    1.000
    Si5816   Si       0.98426    0.98939    0.32295    1.000
    N5817    N        0.95451    0.97428    0.29308    1.000
    Si5818   Si       0.96568    0.93049    0.29474    1.000
    N5819    N        0.98602    0.97278    0.36182    1.000
    Si5820   Si       0.94617    0.77596    0.45006    1.000
    Si5821   Si       0.96100    0.82304    0.38225    1.000
    N5822    N        0.96242    0.81853    0.46582    1.000
    N5823    N        0.95849    0.78648    0.40558    1.000
    N5824    N        0.93350    0.85056    0.40502    1.000
    N5825    N        0.92748    0.77570    0.49116    1.000
    Si5826   Si       0.95969    0.88474    0.39905    1.000
    N5827    N        0.98125    0.88507    0.43875    1.000
    Si5828   Si       0.94956    0.96474    0.38266    1.000
    N5829    N        0.95586    0.98925    0.41825    1.000
    N5830    N        0.94781    0.92477    0.39863    1.000
    Si5831   Si       0.97146    0.90815    0.47311    1.000
    N5832    N        0.93209    0.91298    0.31586    1.000
    N5833    N        0.96187    0.81207    0.54036    1.000
    N5834    N        0.95382    0.84057    0.60141    1.000
    Si5835   Si       0.94135    0.80570    0.57914    1.000
    N5836    N        0.95370    0.76597    0.59222    1.000
    Si5837   Si       0.98486    0.87082    0.61093    1.000
    Si5838   Si       0.93963    0.81572    0.50380    1.000
    N5839    N        0.97893    0.88553    0.50762    1.000
    Si5840   Si       0.95666    0.89723    0.54590    1.000
    N5841    N        0.94368    0.93618    0.52975    1.000
    N5842    N        0.96483    0.97129    0.58577    1.000
    Si5843   Si       0.97167    0.96673    0.54352    1.000
    N5844    N        0.96102    0.00250    0.51818    1.000
    N5845    N        0.98949    0.89634    0.57694    1.000
    Si5846   Si       0.95505    0.78732    0.67071    1.000
    N5847    N        0.97439    0.79225    0.70778    1.000
    N5848    N        0.97450    0.87506    0.71984    1.000
    N5849    N        0.95742    0.88170    0.64459    1.000
    N5850    N        0.97401    0.93851    0.68623    1.000
    N5851    N        0.98136    0.99658    0.64502    1.000
    Si5852   Si       0.94261    0.91828    0.66409    1.000
    N5853    N        0.97916    0.00554    0.71047    1.000
    N5854    N        0.96197    0.82484    0.75943    1.000
    N5855    N        0.94325    0.81129    0.85853    1.000
    Si5856   Si       0.98597    0.82172    0.85613    1.000
    Si5857   Si       0.96268    0.77129    0.74536    1.000
    N5858    N        0.95307    0.89583    0.99283    1.000
    Si5859   Si       0.93584    0.92750    0.78916    1.000
    Si5860   Si       0.95222    0.00002    0.77118    1.000
    N5861    N        0.97497    0.90851    0.79223    1.000
    Si5862   Si       0.97773    0.94811    0.84376    1.000
    N5863    N        0.93574    0.94921    0.82932    1.000
    N5864    N        0.98154    0.90645    0.85824    1.000
    N5865    N        0.93854    0.95971    0.76077    1.000
    N5866    N        0.96832    0.76397    0.95262    1.000
    Si5867   Si       0.95194    0.80312    0.95716    1.000
    N5868    N        0.97876    0.83823    0.95606    1.000
    Si5869   Si       0.97995    0.86156    0.99259    1.000
    Si5870   Si       0.98144    0.99353    0.96723    1.000
    Si5871   Si       0.97152    0.88612    0.89600    1.000
    N5872    N        0.97830    0.91716    0.92825    1.000
    N5873    N        0.97917    0.97077    0.88192    1.000
    Si5874   Si       0.94914    0.92595    0.95923    1.000
    N5875    N        0.94821    0.00636    0.93487    1.000
    N5876    N        0.96219    0.95936    0.98489    1.000
    Si5877   Si       0.94980    0.00093    0.89236    1.000
    N5878    N        0.93061    0.87289    0.89958    1.000
    N5879    N        0.93287    0.79601    0.99707    1.000
