# CIF file generated by openbabel 3.1.1, see https://openbabel.org
data_I
_chemical_name_common '3.01-55.aims'
_cell_length_a 39.8854
_cell_length_b 39.8854
_cell_length_c 39.8854
_cell_angle_alpha 90
_cell_angle_beta 90
_cell_angle_gamma 90
loop_
    _atom_site_label
    _atom_site_type_symbol
    _atom_site_fract_x
    _atom_site_fract_y
    _atom_site_fract_z
    _atom_site_occupancy
    N0       N        0.03308    0.06097    0.10819    1.000
    N1       N        0.03029    0.05482    0.04015    1.000
    Si2      Si       0.00127    0.02097    0.04055    1.000
    Si3      Si       0.99178    0.07208    0.11853    1.000
    Si4      Si       0.04873    0.03756    0.07671    1.000
    N5       N        0.99880    0.01625    0.99597    1.000
    N6       N        0.99338    0.12853    0.03971    1.000
    Si7      Si       0.04217    0.25141    0.09288    1.000
    N8       N        0.99970    0.17016    0.10503    1.000
    Si9      Si       0.03217    0.14634    0.05034    1.000
    Si10     Si       0.01082    0.22480    0.03599    1.000
    N11      N        0.03597    0.18614    0.03533    1.000
    N12      N        0.00544    0.23890    0.11582    1.000
    N13      N        0.00001    0.23640    0.99697    1.000
    N14      N        0.04568    0.24754    0.04784    1.000
    N15      N        0.03713    0.05390    0.17966    1.000
    Si16     Si       0.00472    0.02500    0.17785    1.000
    Si17     Si       0.02667    0.07816    0.21555    1.000
    N18      N        0.98876    0.10419    0.21338    1.000
    Si19     Si       0.98933    0.12648    0.17676    1.000
    N20      N        0.03314    0.13053    0.16231    1.000
    N21      N        0.99899    0.22941    0.18987    1.000
    Si22     Si       0.03532    0.15375    0.12600    1.000
    N23      N        0.03938    0.17235    0.21702    1.000
    N24      N        0.04408    0.19092    0.15041    1.000
    Si25     Si       0.00667    0.25658    0.15730    1.000
    Si26     Si       0.01401    0.18882    0.18653    1.000
    N27      N        0.00639    0.10990    0.31309    1.000
    Si28     Si       0.03574    0.08516    0.29335    1.000
    Si29     Si       0.00818    0.03718    0.34586    1.000
    N30      N        0.02489    0.05985    0.25628    1.000
    Si31     Si       0.03359    0.02113    0.27974    1.000
    N32      N        0.04164    0.04622    0.31688    1.000
    Si33     Si       0.01719    0.15124    0.32110    1.000
    N34      N        0.01735    0.24468    0.32445    1.000
    N35      N        0.99625    0.20381    0.25470    1.000
    Si36     Si       0.03791    0.19256    0.25598    1.000
    N37      N        0.04159    0.15151    0.35908    1.000
    N38      N        0.04445    0.16600    0.28956    1.000
    N39      N        0.02278    0.06348    0.37805    1.000
    Si40     Si       0.00618    0.08607    0.41202    1.000
    Si41     Si       0.03175    0.02816    0.45423    1.000
    N42      N        0.00579    0.06219    0.45026    1.000
    N43      N        0.03990    0.11095    0.42838    1.000
    Si44     Si       0.99171    0.08306    0.48379    1.000
    Si45     Si       0.02650    0.19506    0.45977    1.000
    Si46     Si       0.03955    0.18749    0.38344    1.000
    N47      N        0.00235    0.21042    0.38043    1.000
    Si48     Si       0.98779    0.23244    0.41754    1.000
    N49      N        0.02033    0.09351    0.57509    1.000
    N50      N        0.00651    0.02247    0.56206    1.000
    Si51     Si       0.99435    0.05859    0.58375    1.000
    N52      N        0.02414    0.01554    0.49588    1.000
    N53      N        0.02802    0.10512    0.49715    1.000
    Si54     Si       0.99988    0.13215    0.58080    1.000
    Si55     Si       0.02810    0.14367    0.52287    1.000
    N56      N        0.01958    0.16717    0.59765    1.000
    Si57     Si       0.99538    0.20125    0.59902    1.000
    Si58     Si       0.00434    0.25523    0.53957    1.000
    N59      N        0.04662    0.24740    0.53187    1.000
    N60      N        0.98896    0.14980    0.54078    1.000
    N61      N        0.98746    0.22528    0.56402    1.000
    N62      N        0.03523    0.18014    0.50013    1.000
    N63      N        0.03909    0.01240    0.66825    1.000
    N64      N        0.99871    0.05679    0.62699    1.000
    Si65     Si       0.03291    0.10471    0.68626    1.000
    Si66     Si       0.04009    0.04613    0.64047    1.000
    N67      N        0.02343    0.08278    0.72157    1.000
    N68      N        0.99365    0.11530    0.66829    1.000
    N69      N        0.00509    0.23176    0.62825    1.000
    N70      N        0.00500    0.19924    0.69281    1.000
    Si71     Si       0.00770    0.17529    0.72945    1.000
    Si72     Si       0.02960    0.22444    0.66504    1.000
    Si73     Si       0.01755    0.07722    0.81245    1.000
    N74      N        0.00074    0.03653    0.81927    1.000
    N75      N        0.03950    0.09063    0.84784    1.000
    Si76     Si       0.00390    0.00326    0.84723    1.000
    Si77     Si       0.02659    0.21595    0.78655    1.000
    Si78     Si       0.02500    0.16729    0.83892    1.000
    N79      N        0.01986    0.20987    0.82797    1.000
    Si80     Si       0.00272    0.23740    0.85619    1.000
    N81      N        0.99408    0.20018    0.76208    1.000
    N82      N        0.03822    0.25667    0.77801    1.000
    N83      N        0.04482    0.15345    0.74760    1.000
    N84      N        0.04101    0.01542    0.87035    1.000
    N85      N        0.04288    0.11914    0.92813    1.000
    N86      N        0.04292    0.07393    0.97225    1.000
    Si87     Si       0.01207    0.09759    0.94999    1.000
    N88      N        0.00358    0.06334    0.91968    1.000
    Si89     Si       0.03744    0.04179    0.90368    1.000
    Si90     Si       0.03788    0.02902    0.97836    1.000
    N91      N        0.03122    0.00968    0.93650    1.000
    N92      N        0.03098    0.17061    0.88361    1.000
    N93      N        0.02944    0.24646    0.88901    1.000
    Si94     Si       0.99471    0.18635    0.90208    1.000
    Si95     Si       0.02594    0.24299    0.93221    1.000
    N96      N        0.00408    0.20656    0.94035    1.000
    N97      N        0.00641    0.30161    0.02264    1.000
    Si98     Si       0.02788    0.33594    0.09302    1.000
    N99      N        0.01143    0.35756    0.05742    1.000
    N100     N        0.03360    0.29296    0.08649    1.000
    Si101    Si       0.04280    0.29292    0.04364    1.000
    N102     N        0.99182    0.34482    0.11834    1.000
    Si103    Si       0.02744    0.39285    0.04082    1.000
    N104     N        0.02326    0.47970    0.06243    1.000
    N105     N        0.99222    0.41854    0.02953    1.000
    N106     N        0.04995    0.32904    0.15252    1.000
    Si107    Si       0.00612    0.32748    0.15591    1.000
    N108     N        0.00003    0.34936    0.19403    1.000
    Si109    Si       0.04367    0.35807    0.20744    1.000
    N110     N        0.00025    0.28019    0.24597    1.000
    N111     N        0.04969    0.26262    0.16328    1.000
    N112     N        0.00065    0.44853    0.14543    1.000
    N113     N        0.03083    0.39682    0.22012    1.000
    Si114    Si       0.03841    0.50316    0.20196    1.000
    N115     N        0.01569    0.46608    0.20952    1.000
    Si116    Si       0.04096    0.43799    0.14442    1.000
    Si117    Si       0.04822    0.43623    0.21849    1.000
    N118     N        0.02482    0.31420    0.33033    1.000
    N119     N        0.02413    0.34267    0.27205    1.000
    Si120    Si       0.03503    0.30496    0.25454    1.000
    Si121    Si       0.04223    0.35192    0.31221    1.000
    Si122    Si       0.04639    0.27733    0.32249    1.000
    Si123    Si       0.01441    0.46713    0.34817    1.000
    N124     N        0.03711    0.39572    0.31821    1.000
    Si125    Si       0.03506    0.41409    0.35927    1.000
    Si126    Si       0.00381    0.35769    0.40999    1.000
    N127     N        0.03346    0.35314    0.44141    1.000
    N128     N        0.01149    0.27012    0.43793    1.000
    Si129    Si       0.99420    0.28703    0.47586    1.000
    N130     N        0.02832    0.37815    0.38325    1.000
    Si131    Si       0.04761    0.33663    0.47859    1.000
    Si132    Si       0.03707    0.46728    0.42898    1.000
    N133     N        0.00465    0.44002    0.44163    1.000
    N134     N        0.04060    0.44968    0.38775    1.000
    N135     N        0.04545    0.48432    0.47662    1.000
    N136     N        0.01440    0.50616    0.42554    1.000
    N137     N        0.00516    0.36290    0.54754    1.000
    Si138    Si       0.02038    0.32210    0.54406    1.000
    N139     N        0.99854    0.29095    0.56769    1.000
    N140     N        0.01714    0.31489    0.49976    1.000
    Si141    Si       0.01227    0.27235    0.60862    1.000
    Si142    Si       0.03235    0.39207    0.52911    1.000
    N143     N        0.01380    0.42791    0.50907    1.000
    N144     N        0.01616    0.43808    0.60630    1.000
    Si145    Si       0.98504    0.41001    0.61777    1.000
    N146     N        0.99332    0.30064    0.63694    1.000
    N147     N        0.03363    0.26504    0.68101    1.000
    N148     N        0.00698    0.32688    0.69879    1.000
    N149     N        0.00234    0.37125    0.62950    1.000
    Si150    Si       0.99744    0.28796    0.67939    1.000
    Si151    Si       0.04448    0.33920    0.71452    1.000
    N152     N        0.03792    0.37084    0.74159    1.000
    Si153    Si       0.03680    0.37873    0.65611    1.000
    Si154    Si       0.04567    0.41084    0.72513    1.000
    Si155    Si       0.01123    0.47618    0.62561    1.000
    N156     N        0.02359    0.47188    0.66731    1.000
    Si157    Si       0.99706    0.43997    0.68481    1.000
    N158     N        0.02514    0.40833    0.68655    1.000
    Si159    Si       0.02135    0.35379    0.77813    1.000
    Si160    Si       0.03243    0.28405    0.81178    1.000
    N161     N        0.99382    0.27470    0.83182    1.000
    N162     N        0.01192    0.38108    0.81168    1.000
    N163     N        0.04739    0.32241    0.79133    1.000
    N164     N        0.99719    0.50397    0.84912    1.000
    N165     N        0.02662    0.44255    0.74935    1.000
    Si166    Si       0.00550    0.42939    0.86902    1.000
    N167     N        0.04557    0.42694    0.85572    1.000
    N168     N        0.01354    0.31746    0.89121    1.000
    Si169    Si       0.99658    0.27836    0.98743    1.000
    N170     N        0.02189    0.28177    0.95247    1.000
    N171     N        0.00498    0.45419    0.90334    1.000
    Si172    Si       0.01431    0.44389    0.94470    1.000
    N173     N        0.01521    0.40158    0.94387    1.000
    N174     N        0.02412    0.61084    0.04254    1.000
    Si175    Si       0.02106    0.52128    0.04933    1.000
    N176     N        0.03538    0.52829    0.11912    1.000
    Si177    Si       0.99349    0.53624    0.11062    1.000
    N178     N        0.02254    0.51954    0.00561    1.000
    N179     N        0.99443    0.54951    0.06753    1.000
    Si180    Si       0.99277    0.62360    0.99698    1.000
    Si181    Si       0.99857    0.74321    0.10825    1.000
    N182     N        0.00856    0.66735    0.01467    1.000
    Si183    Si       0.02767    0.65286    0.05185    1.000
    Si184    Si       0.02324    0.67010    0.11326    1.000
    N185     N        0.99868    0.75110    0.06534    1.000
    N186     N        0.99597    0.66418    0.08062    1.000
    Si187    Si       0.00799    0.57114    0.17233    1.000
    N188     N        0.00733    0.53059    0.19086    1.000
    Si189    Si       0.01150    0.61486    0.23579    1.000
    N190     N        0.04494    0.58662    0.23448    1.000
    N191     N        0.02439    0.71162    0.12386    1.000
    N192     N        0.02112    0.65271    0.21394    1.000
    N193     N        0.01843    0.74448    0.18337    1.000
    N194     N        0.02050    0.64902    0.15150    1.000
    Si195    Si       0.99021    0.63951    0.18169    1.000
    Si196    Si       0.04704    0.72927    0.15625    1.000
    Si197    Si       0.01198    0.68615    0.24446    1.000
    N198     N        0.02410    0.54633    0.29133    1.000
    Si199    Si       0.04101    0.54034    0.33257    1.000
    N200     N        0.01214    0.51705    0.35617    1.000
    Si201    Si       0.04211    0.61456    0.36723    1.000
    N202     N        0.01713    0.63701    0.33925    1.000
    N203     N        0.00845    0.65793    0.27831    1.000
    N204     N        0.00680    0.71208    0.34019    1.000
    N205     N        0.03557    0.71587    0.26497    1.000
    Si206    Si       0.03799    0.71659    0.30852    1.000
    Si207    Si       0.04257    0.64800    0.30357    1.000
    Si208    Si       0.99341    0.67193    0.34734    1.000
    Si209    Si       0.01207    0.51156    0.46892    1.000
    N210     N        0.01651    0.54830    0.49028    1.000
    N211     N        0.01527    0.60526    0.40008    1.000
    Si212    Si       0.04058    0.61074    0.43499    1.000
    Si213    Si       0.02057    0.68541    0.42031    1.000
    N214     N        0.04150    0.65348    0.44130    1.000
    N215     N        0.00383    0.70444    0.45533    1.000
    Si216    Si       0.00810    0.73640    0.37691    1.000
    N217     N        0.04236    0.71600    0.39773    1.000
    Si218    Si       0.00556    0.58268    0.57272    1.000
    N219     N        0.02235    0.62298    0.57993    1.000
    N220     N        0.03838    0.55617    0.56008    1.000
    Si221    Si       0.02474    0.51355    0.56429    1.000
    N222     N        0.98875    0.59780    0.53176    1.000
    N223     N        0.02728    0.51051    0.60670    1.000
    Si224    Si       0.00130    0.63917    0.54511    1.000
    N225     N        0.01640    0.72157    0.52150    1.000
    N226     N        0.02254    0.65872    0.51218    1.000
    Si227    Si       0.04145    0.65844    0.60026    1.000
    Si228    Si       0.99667    0.69157    0.49534    1.000
    N229     N        0.02604    0.60917    0.65681    1.000
    Si230    Si       0.00966    0.57643    0.68274    1.000
    N231     N        0.00478    0.59307    0.72227    1.000
    N232     N        0.03259    0.53950    0.67949    1.000
    Si233    Si       0.99787    0.64257    0.65202    1.000
    N234     N        0.01187    0.67592    0.62847    1.000
    Si235    Si       0.00378    0.63699    0.72897    1.000
    N236     N        0.99560    0.73024    0.67327    1.000
    Si237    Si       0.01062    0.72008    0.63024    1.000
    N238     N        0.04688    0.64836    0.72556    1.000
    Si239    Si       0.00887    0.58953    0.76584    1.000
    Si240    Si       0.03828    0.51862    0.85068    1.000
    N241     N        0.03922    0.56102    0.86145    1.000
    N242     N        0.02899    0.51211    0.75839    1.000
    N243     N        0.99454    0.63012    0.77239    1.000
    N244     N        0.03516    0.70885    0.77538    1.000
    Si245    Si       0.00008    0.72796    0.75729    1.000
    N246     N        0.04431    0.75096    0.84223    1.000
    Si247    Si       0.00682    0.66654    0.86765    1.000
    N248     N        0.04508    0.68416    0.84881    1.000
    Si249    Si       0.05097    0.74309    0.79895    1.000
    N250     N        0.00094    0.58413    0.97331    1.000
    Si251    Si       0.02196    0.56578    0.90038    1.000
    N252     N        0.01495    0.52212    0.91217    1.000
    Si253    Si       0.04256    0.59560    0.96278    1.000
    Si254    Si       0.04629    0.66732    0.99230    1.000
    Si255    Si       0.03650    0.72305    0.94606    1.000
    N256     N        0.00281    0.69638    0.94420    1.000
    N257     N        0.03255    0.63746    0.96506    1.000
    N258     N        0.03012    0.64986    0.90245    1.000
    Si259    Si       0.00084    0.65400    0.93489    1.000
    Si260    Si       0.01889    0.78992    0.05816    1.000
    N261     N        0.02044    0.79450    0.01404    1.000
    N262     N        0.01376    0.88068    0.06053    1.000
    Si263    Si       0.99027    0.85626    0.08891    1.000
    N264     N        0.02020    0.77959    0.12095    1.000
    N265     N        0.02771    0.99968    0.06646    1.000
    Si266    Si       0.00745    0.91680    0.03291    1.000
    N267     N        0.01723    0.94953    0.11323    1.000
    Si268    Si       0.04239    0.96112    0.07967    1.000
    N269     N        0.04914    0.93032    0.04884    1.000
    N270     N        0.01483    0.85054    0.12392    1.000
    N271     N        0.00856    0.77218    0.23729    1.000
    Si272    Si       0.03601    0.77837    0.20472    1.000
    N273     N        0.01171    0.87491    0.23349    1.000
    N274     N        0.02234    0.81530    0.18764    1.000
    Si275    Si       0.00584    0.81333    0.14620    1.000
    Si276    Si       0.99537    0.84131    0.21040    1.000
    Si277    Si       0.99755    0.95805    0.15166    1.000
    N278     N        0.00313    0.92516    0.17717    1.000
    N279     N        0.02400    0.98783    0.16971    1.000
    N280     N        0.99796    0.81791    0.29224    1.000
    Si281    Si       0.04096    0.82656    0.29612    1.000
    Si282    Si       0.05136    0.75981    0.26245    1.000
    N283     N        0.01581    0.99728    0.36098    1.000
    N284     N        0.03174    0.90192    0.34261    1.000
    N285     N        0.00890    0.93788    0.26875    1.000
    N286     N        0.99185    0.00902    0.27924    1.000
    Si287    Si       0.98915    0.89975    0.26108    1.000
    N288     N        0.01616    0.78126    0.37271    1.000
    N289     N        0.01649    0.77319    0.44821    1.000
    Si290    Si       0.01441    0.80080    0.41547    1.000
    N291     N        0.04103    0.82777    0.43376    1.000
    Si292    Si       0.04248    0.86883    0.44212    1.000
    Si293    Si       0.05061    0.79910    0.46665    1.000
    N294     N        0.02422    0.88278    0.48034    1.000
    N295     N        0.00699    0.94217    0.46967    1.000
    N296     N        0.01935    0.89224    0.41247    1.000
    Si297    Si       0.99709    0.97158    0.43901    1.000
    N298     N        0.03166    0.99583    0.42734    1.000
    Si299    Si       0.03655    0.92406    0.49647    1.000
    N300     N        0.00859    0.85152    0.54734    1.000
    Si301    Si       0.02499    0.85317    0.58715    1.000
    Si302    Si       0.99935    0.81236    0.52574    1.000
    N303     N        0.00332    0.82128    0.60545    1.000
    Si304    Si       0.03818    0.85795    0.51319    1.000
    N305     N        0.03352    0.81610    0.50144    1.000
    N306     N        0.99002    0.77921    0.55114    1.000
    N307     N        0.02050    0.89398    0.60510    1.000
    Si308    Si       0.03560    0.92639    0.57987    1.000
    N309     N        0.02079    0.96243    0.60027    1.000
    N310     N        0.02489    0.92275    0.53748    1.000
    Si311    Si       0.03719    0.00039    0.58536    1.000
    N312     N        0.99479    0.87448    0.73987    1.000
    Si313    Si       0.01523    0.86096    0.70487    1.000
    Si314    Si       0.00530    0.82842    0.64856    1.000
    N315     N        0.02983    0.82058    0.71267    1.000
    N316     N        0.99957    0.86814    0.66544    1.000
    Si317    Si       0.01500    0.76670    0.68929    1.000
    N318     N        0.01308    0.76089    0.73195    1.000
    N319     N        0.02435    0.93458    0.66862    1.000
    Si320    Si       0.00228    0.90464    0.64341    1.000
    N321     N        0.01463    0.98398    0.72319    1.000
    Si322    Si       0.01854    0.97700    0.68023    1.000
    Si323    Si       0.01784    0.78412    0.85045    1.000
    Si324    Si       0.04148    0.86096    0.83878    1.000
    N325     N        0.04340    0.81828    0.84313    1.000
    N326     N        0.00733    0.87485    0.81204    1.000
    Si327    Si       0.02372    0.80398    0.75122    1.000
    Si328    Si       0.02449    0.88109    0.77130    1.000
    N329     N        0.04265    0.78385    0.78483    1.000
    N330     N        0.05150    0.84459    0.76868    1.000
    Si331    Si       0.02963    0.95265    0.79268    1.000
    N332     N        0.02546    0.96436    0.83536    1.000
    N333     N        0.05000    0.91372    0.78217    1.000
    Si334    Si       0.99269    0.77462    0.98518    1.000
    N335     N        0.02842    0.76548    0.95929    1.000
    N336     N        0.00450    0.77773    0.89312    1.000
    N337     N        0.03384    0.82724    0.92339    1.000
    Si338    Si       0.02027    0.86762    0.91347    1.000
    Si339    Si       0.03945    0.78143    0.91897    1.000
    N340     N        0.03623    0.88182    0.87549    1.000
    N341     N        0.01468    0.90897    0.98939    1.000
    Si342    Si       0.99153    0.99424    0.92546    1.000
    N343     N        0.09067    0.02714    0.06973    1.000
    N344     N        0.05959    0.12355    0.02552    1.000
    Si345    Si       0.09316    0.12575    0.10541    1.000
    N346     N        0.09981    0.07555    0.02429    1.000
    Si347    Si       0.05224    0.08276    0.01714    1.000
    Si348    Si       0.10597    0.03362    0.02957    1.000
    Si349    Si       0.10404    0.11878    0.03285    1.000
    N350     N        0.07460    0.01645    0.99774    1.000
    N351     N        0.05428    0.13946    0.09123    1.000
    Si352    Si       0.07354    0.21157    0.03422    1.000
    N353     N        0.07570    0.22841    0.10764    1.000
    Si354    Si       0.06007    0.06058    0.14261    1.000
    N355     N        0.08906    0.09122    0.13094    1.000
    N356     N        0.06080    0.10489    0.22146    1.000
    N357     N        0.07875    0.01875    0.13809    1.000
    N358     N        0.10403    0.22390    0.17310    1.000
    Si359    Si       0.06849    0.22404    0.14942    1.000
    Si360    Si       0.10231    0.22336    0.21702    1.000
    Si361    Si       0.06089    0.13949    0.19559    1.000
    N362     N        0.10409    0.15329    0.19481    1.000
    N363     N        0.07399    0.10313    0.28729    1.000
    N364     N        0.09037    0.08704    0.35803    1.000
    Si365    Si       0.06292    0.05569    0.35764    1.000
    Si366    Si       0.09113    0.08964    0.25103    1.000
    Si367    Si       0.07954    0.12892    0.36158    1.000
    N368     N        0.10159    0.04504    0.25267    1.000
    Si369    Si       0.08235    0.14549    0.29250    1.000
    N370     N        0.10368    0.14583    0.33019    1.000
    N371     N        0.07187    0.22295    0.24753    1.000
    N372     N        0.07725    0.02030    0.37675    1.000
    N373     N        0.06854    0.05368    0.45338    1.000
    N374     N        0.08844    0.12071    0.46892    1.000
    Si375    Si       0.05332    0.09316    0.46543    1.000
    N376     N        0.05098    0.17926    0.42725    1.000
    Si377    Si       0.08023    0.21394    0.42320    1.000
    N378     N        0.10030    0.13794    0.40044    1.000
    Si379    Si       0.09643    0.24595    0.37272    1.000
    N380     N        0.05619    0.22898    0.46575    1.000
    N381     N        0.07771    0.20900    0.37708    1.000
    Si382    Si       0.07217    0.14007    0.43280    1.000
    N383     N        0.08192    0.25759    0.41388    1.000
    N384     N        0.06496    0.05449    0.53989    1.000
    N385     N        0.08982    0.08996    0.59421    1.000
    N386     N        0.06078    0.02862    0.60612    1.000
    Si387    Si       0.06412    0.09386    0.55789    1.000
    Si388    Si       0.10152    0.04508    0.59773    1.000
    Si389    Si       0.05519    0.01389    0.52591    1.000
    N390     N        0.09152    0.01187    0.49940    1.000
    N391     N        0.05724    0.13887    0.55421    1.000
    N392     N        0.08639    0.19810    0.58015    1.000
    Si393    Si       0.08397    0.22848    0.61203    1.000
    Si394    Si       0.06193    0.16367    0.59084    1.000
    Si395    Si       0.06177    0.21412    0.50845    1.000
    N396     N        0.10198    0.20354    0.51592    1.000
    N397     N        0.08523    0.10055    0.72271    1.000
    Si398    Si       0.08548    0.10457    0.63422    1.000
    N399     N        0.06846    0.03109    0.73989    1.000
    Si400    Si       0.05862    0.07250    0.74439    1.000
    N401     N        0.05463    0.08274    0.65462    1.000
    N402     N        0.08079    0.24332    0.72147    1.000
    N403     N        0.10416    0.17781    0.69970    1.000
    N404     N        0.06663    0.20981    0.64811    1.000
    N405     N        0.05396    0.14369    0.68369    1.000
    Si406    Si       0.07978    0.14425    0.72098    1.000
    N407     N        0.08285    0.14709    0.62637    1.000
    Si408    Si       0.08210    0.17062    0.66216    1.000
    Si409    Si       0.07480    0.11816    0.84718    1.000
    Si410    Si       0.09132    0.06597    0.80065    1.000
    N411     N        0.10059    0.02982    0.81941    1.000
    N412     N        0.05114    0.07729    0.78457    1.000
    N413     N        0.06978    0.20346    0.77983    1.000
    Si414    Si       0.07334    0.16064    0.78179    1.000
    Si415    Si       0.07996    0.24276    0.76527    1.000
    N416     N        0.05960    0.14915    0.81982    1.000
    N417     N        0.07589    0.05673    0.91581    1.000
    Si418    Si       0.07207    0.09026    0.94507    1.000
    N419     N        0.09504    0.20888    0.99593    1.000
    Si420    Si       0.09535    0.21317    0.94997    1.000
    N421     N        0.06858    0.24381    0.93845    1.000
    Si422    Si       0.06203    0.15336    0.90888    1.000
    N423     N        0.09292    0.13586    0.88277    1.000
    N424     N        0.08946    0.17241    0.93959    1.000
    N425     N        0.07834    0.31358    0.03307    1.000
    N426     N        0.06764    0.35058    0.08808    1.000
    Si427    Si       0.10013    0.33630    0.06303    1.000
    N428     N        0.05099    0.38401    0.00512    1.000
    N429     N        0.10571    0.37721    0.04795    1.000
    Si430    Si       0.09688    0.38898    0.00482    1.000
    Si431    Si       0.07803    0.39286    0.09441    1.000
    Si432    Si       0.05929    0.46100    0.07929    1.000
    N433     N        0.09678    0.46944    0.05774    1.000
    N434     N        0.05314    0.41861    0.06759    1.000
    N435     N        0.06797    0.46582    0.12178    1.000
    Si436    Si       0.06933    0.29713    0.17872    1.000
    Si437    Si       0.07654    0.36292    0.15000    1.000
    N438     N        0.08344    0.36812    0.19378    1.000
    N439     N        0.05452    0.31622    0.21672    1.000
    Si440    Si       0.09145    0.46989    0.15919    1.000
    N441     N        0.05522    0.39710    0.13441    1.000
    N442     N        0.06758    0.44339    0.18165    1.000
    N443     N        0.08441    0.34481    0.32854    1.000
    N444     N        0.07878    0.27725    0.35047    1.000
    N445     N        0.06034    0.28212    0.28055    1.000
    Si446    Si       0.09316    0.31637    0.36064    1.000
    Si447    Si       0.09552    0.26059    0.26453    1.000
    Si448    Si       0.10302    0.38368    0.33505    1.000
    Si449    Si       0.08437    0.48229    0.25504    1.000
    Si450    Si       0.05772    0.42698    0.29646    1.000
    Si451    Si       0.08640    0.47863    0.33420    1.000
    N452     N        0.06118    0.44529    0.25850    1.000
    N453     N        0.09878    0.40814    0.29832    1.000
    N454     N        0.10247    0.48690    0.29369    1.000
    N455     N        0.08500    0.40375    0.36847    1.000
    N456     N        0.04896    0.45616    0.32625    1.000
    N457     N        0.10837    0.46772    0.36985    1.000
    N458     N        0.07616    0.30298    0.46883    1.000
    N459     N        0.08984    0.34006    0.39768    1.000
    Si460    Si       0.05665    0.27034    0.44587    1.000
    Si461    Si       0.06677    0.37549    0.40478    1.000
    N462     N        0.08402    0.47031    0.43169    1.000
    Si463    Si       0.09275    0.43860    0.40187    1.000
    N464     N        0.07945    0.40484    0.43236    1.000
    Si465    Si       0.08504    0.39838    0.47495    1.000
    Si466    Si       0.08562    0.49649    0.46433    1.000
    N467     N        0.06263    0.31254    0.54977    1.000
    Si468    Si       0.07000    0.27017    0.55844    1.000
    N469     N        0.05614    0.26069    0.59797    1.000
    N470     N        0.05866    0.37297    0.49799    1.000
    N471     N        0.06152    0.41143    0.55673    1.000
    N472     N        0.07811    0.45791    0.60429    1.000
    Si473    Si       0.08829    0.48151    0.56868    1.000
    Si474    Si       0.05460    0.42297    0.59725    1.000
    Si475    Si       0.10041    0.42344    0.53749    1.000
    N476     N        0.08238    0.43376    0.49927    1.000
    N477     N        0.04939    0.48176    0.54762    1.000
    Si478    Si       0.04543    0.45823    0.51078    1.000
    N479     N        0.09956    0.29291    0.67417    1.000
    Si480    Si       0.06936    0.27936    0.70268    1.000
    N481     N        0.07254    0.30996    0.73170    1.000
    N482     N        0.06439    0.35142    0.67732    1.000
    Si483    Si       0.10550    0.33476    0.67945    1.000
    Si484    Si       0.10175    0.47064    0.63787    1.000
    N485     N        0.07463    0.48867    0.71494    1.000
    N486     N        0.06729    0.39491    0.62851    1.000
    N487     N        0.08674    0.42036    0.73147    1.000
    Si488    Si       0.05160    0.50208    0.68040    1.000
    N489     N        0.07995    0.50714    0.64844    1.000
    Si490    Si       0.08462    0.31144    0.77336    1.000
    N491     N        0.06554    0.27698    0.83969    1.000
    N492     N        0.10439    0.27185    0.78472    1.000
    N493     N        0.06410    0.36559    0.87072    1.000
    N494     N        0.07898    0.39575    0.80448    1.000
    N495     N        0.08720    0.46681    0.78002    1.000
    Si496    Si       0.09514    0.42497    0.77498    1.000
    Si497    Si       0.07865    0.45315    0.86637    1.000
    Si498    Si       0.10106    0.49556    0.80876    1.000
    Si499    Si       0.05400    0.47693    0.75021    1.000
    Si500    Si       0.04852    0.38660    0.83536    1.000
    N501     N        0.07655    0.30130    0.90447    1.000
    Si502    Si       0.06455    0.29447    0.94691    1.000
    N503     N        0.10217    0.29364    0.96853    1.000
    N504     N        0.05427    0.34016    0.94498    1.000
    Si505    Si       0.05092    0.33675    0.90099    1.000
    Si506    Si       0.04795    0.37965    0.96099    1.000
    Si507    Si       0.06827    0.26632    0.88118    1.000
    Si508    Si       0.05042    0.49567    0.91791    1.000
    Si509    Si       0.10160    0.38619    0.88057    1.000
    N510     N        0.08732    0.39967    0.95792    1.000
    N511     N        0.05354    0.46125    0.94215    1.000
    Si512    Si       0.08955    0.43651    0.93748    1.000
    N513     N        0.06050    0.49182    0.87641    1.000
    N514     N        0.09802    0.42638    0.89651    1.000
    Si515    Si       0.06457    0.60593    0.03200    1.000
    N516     N        0.06154    0.54141    0.05073    1.000
    Si517    Si       0.09299    0.55892    0.07584    1.000
    N518     N        0.09310    0.60108    0.06376    1.000
    Si519    Si       0.06193    0.53958    0.00691    1.000
    N520     N        0.09592    0.51542    0.00025    1.000
    N521     N        0.09893    0.55656    0.11991    1.000
    Si522    Si       0.09791    0.63849    0.08674    1.000
    N523     N        0.07099    0.65005    0.02224    1.000
    N524     N        0.05732    0.65467    0.08822    1.000
    N525     N        0.07431    0.50862    0.17585    1.000
    N526     N        0.08261    0.62720    0.18619    1.000
    Si527    Si       0.06803    0.53799    0.14421    1.000
    Si528    Si       0.07284    0.58863    0.20438    1.000
    N529     N        0.05515    0.51323    0.24219    1.000
    N530     N        0.10476    0.56191    0.21656    1.000
    N531     N        0.05077    0.57058    0.17029    1.000
    N532     N        0.06953    0.69658    0.17368    1.000
    Si533    Si       0.05207    0.65746    0.18000    1.000
    N534     N        0.07984    0.75045    0.13323    1.000
    Si535    Si       0.08513    0.58883    0.31697    1.000
    N536     N        0.09056    0.55898    0.28398    1.000
    N537     N        0.08094    0.52179    0.34253    1.000
    N538     N        0.07777    0.62390    0.29411    1.000
    Si539    Si       0.05526    0.55204    0.26003    1.000
    N540     N        0.05169    0.58059    0.34275    1.000
    N541     N        0.06453    0.68350    0.31768    1.000
    Si542    Si       0.09201    0.66847    0.34829    1.000
    N543     N        0.05411    0.75711    0.31060    1.000
    N544     N        0.07771    0.59405    0.42104    1.000
    N545     N        0.07708    0.53846    0.45748    1.000
    Si546    Si       0.10187    0.62755    0.40938    1.000
    Si547    Si       0.05944    0.56542    0.49190    1.000
    Si548    Si       0.10289    0.55951    0.42865    1.000
    N549     N        0.04841    0.60510    0.48048    1.000
    N550     N        0.07653    0.64100    0.37569    1.000
    N551     N        0.10148    0.72129    0.43380    1.000
    Si552    Si       0.05321    0.64778    0.48334    1.000
    Si553    Si       0.08438    0.72671    0.39380    1.000
    N554     N        0.07918    0.68198    0.49593    1.000
    Si555    Si       0.07992    0.56659    0.56598    1.000
    N556     N        0.09025    0.57288    0.52260    1.000
    N557     N        0.08912    0.52403    0.58062    1.000
    N558     N        0.06896    0.57558    0.61227    1.000
    Si559    Si       0.06435    0.53172    0.61778    1.000
    Si560    Si       0.07814    0.71947    0.58238    1.000
    N561     N        0.08135    0.73381    0.54147    1.000
    Si562    Si       0.05425    0.70133    0.52707    1.000
    N563     N        0.05769    0.68262    0.56877    1.000
    N564     N        0.05209    0.73079    0.61723    1.000
    N565     N        0.09138    0.59563    0.67677    1.000
    Si566    Si       0.06711    0.60862    0.64259    1.000
    N567     N        0.10112    0.61182    0.74394    1.000
    Si568    Si       0.08238    0.62702    0.70769    1.000
    N569     N        0.10575    0.65970    0.69091    1.000
    N570     N        0.07485    0.65063    0.62879    1.000
    Si571    Si       0.08138    0.74929    0.64439    1.000
    Si572    Si       0.07925    0.60864    0.78120    1.000
    Si573    Si       0.07601    0.58228    0.85143    1.000
    Si574    Si       0.05561    0.53860    0.78050    1.000
    N575     N        0.07570    0.62479    0.86161    1.000
    N576     N        0.06447    0.51865    0.81733    1.000
    N577     N        0.09931    0.58703    0.81238    1.000
    N578     N        0.09788    0.53087    0.76261    1.000
    N579     N        0.04949    0.57951    0.77364    1.000
    Si580    Si       0.05789    0.67359    0.75881    1.000
    Si581    Si       0.07295    0.65698    0.83369    1.000
    N582     N        0.09421    0.73980    0.79782    1.000
    N583     N        0.06507    0.64583    0.79287    1.000
    N584     N        0.09730    0.69057    0.75199    1.000
    Si585    Si       0.05884    0.72050    0.86804    1.000
    Si586    Si       0.09139    0.56135    0.92049    1.000
    N587     N        0.08226    0.52286    0.93338    1.000
    N588     N        0.05421    0.58615    0.92101    1.000
    N589     N        0.06368    0.58094    0.99648    1.000
    N590     N        0.09630    0.64136    0.93177    1.000
    Si591    Si       0.06602    0.62700    0.90407    1.000
    Si592    Si       0.10160    0.74696    0.91054    1.000
    Si593    Si       0.09691    0.72665    0.98746    1.000
    N594     N        0.10357    0.71297    0.88004    1.000
    N595     N        0.05650    0.73734    0.91058    1.000
    N596     N        0.05966    0.70535    0.97655    1.000
    N597     N        0.08740    0.86348    0.04583    1.000
    Si598    Si       0.09839    0.77795    0.04820    1.000
    N599     N        0.06175    0.79011    0.06927    1.000
    Si600    Si       0.06150    0.78421    0.11222    1.000
    Si601    Si       0.09779    0.85768    0.00430    1.000
    N602     N        0.08659    0.76436    0.00788    1.000
    Si603    Si       0.05637    0.88909    0.06509    1.000
    N604     N        0.06680    0.89330    0.10625    1.000
    N605     N        0.08252    0.96481    0.09735    1.000
    Si606    Si       0.10138    0.00322    0.10433    1.000
    N607     N        0.07534    0.82026    0.13363    1.000
    Si608    Si       0.09967    0.87246    0.19232    1.000
    N609     N        0.08822    0.85916    0.23109    1.000
    Si610    Si       0.05534    0.86041    0.13423    1.000
    N611     N        0.06431    0.88136    0.17177    1.000
    Si612    Si       0.05272    0.88212    0.24298    1.000
    N613     N        0.07120    0.75948    0.22279    1.000
    Si614    Si       0.08886    0.92746    0.11987    1.000
    N615     N        0.09498    0.99932    0.20129    1.000
    N616     N        0.05741    0.92328    0.22694    1.000
    Si617    Si       0.06744    0.98996    0.16809    1.000
    N618     N        0.07911    0.94520    0.16249    1.000
    Si619    Si       0.09752    0.00123    0.24384    1.000
    Si620    Si       0.04721    0.92035    0.18295    1.000
    Si621    Si       0.09132    0.84660    0.35274    1.000
    N622     N        0.05853    0.82277    0.33585    1.000
    N623     N        0.06224    0.80352    0.26671    1.000
    Si624    Si       0.09741    0.82297    0.25313    1.000
    Si625    Si       0.05237    0.77983    0.34561    1.000
    N626     N        0.10438    0.87728    0.32748    1.000
    N627     N        0.05211    0.86739    0.28502    1.000
    Si628    Si       0.06535    0.89496    0.31643    1.000
    N629     N        0.07467    0.92958    0.29327    1.000
    N630     N        0.05791    0.99141    0.25996    1.000
    Si631    Si       0.05118    0.94868    0.26098    1.000
    N632     N        0.08462    0.76647    0.37382    1.000
    N633     N        0.08582    0.77758    0.47505    1.000
    N634     N        0.07728    0.87674    0.38337    1.000
    N635     N        0.08368    0.88301    0.45032    1.000
    Si636    Si       0.10710    0.88467    0.41408    1.000
    N637     N        0.06773    0.94917    0.38092    1.000
    Si638    Si       0.09789    0.89326    0.48997    1.000
    Si639    Si       0.04975    0.98976    0.38746    1.000
    N640     N        0.07828    0.93339    0.49276    1.000
    Si641    Si       0.04691    0.91028    0.38203    1.000
    N642     N        0.07018    0.84651    0.58676    1.000
    N643     N        0.07587    0.87377    0.52211    1.000
    Si644    Si       0.09134    0.87783    0.56365    1.000
    N645     N        0.07971    0.91844    0.57970    1.000
    N646     N        0.06528    0.98446    0.55619    1.000
    Si647    Si       0.09848    0.95664    0.56634    1.000
    Si648    Si       0.10357    0.96856    0.49711    1.000
    Si649    Si       0.08337    0.82764    0.62422    1.000
    N650     N        0.09864    0.78547    0.62441    1.000
    Si651    Si       0.06628    0.80908    0.68948    1.000
    N652     N        0.09777    0.82441    0.71378    1.000
    Si653    Si       0.07944    0.85636    0.73719    1.000
    N654     N        0.05646    0.76936    0.67512    1.000
    N655     N        0.05174    0.82984    0.65191    1.000
    N656     N        0.05449    0.88198    0.71164    1.000
    N657     N        0.09723    0.91567    0.67013    1.000
    Si658    Si       0.05978    0.92261    0.69055    1.000
    N659     N        0.07350    0.96146    0.70836    1.000
    Si660    Si       0.05534    0.98912    0.73597    1.000
    Si661    Si       0.06371    0.81934    0.80344    1.000
    N662     N        0.08096    0.86367    0.82069    1.000
    N663     N        0.10590    0.81107    0.79864    1.000
    Si664    Si       0.06000    0.97622    0.86014    1.000
    Si665    Si       0.08986    0.89746    0.79289    1.000
    N666     N        0.09420    0.96493    0.83660    1.000
    N667     N        0.05884    0.98043    0.77890    1.000
    Si668    Si       0.09594    0.99174    0.79987    1.000
    Si669    Si       0.07296    0.83579    0.93829    1.000
    N670     N        0.07220    0.83066    0.98351    1.000
    N671     N        0.08442    0.79000    0.93005    1.000
    Si672    Si       0.05624    0.79105    0.98864    1.000
    Si673    Si       0.05416    0.91175    0.97155    1.000
    Si674    Si       0.09018    0.98210    0.97724    1.000
    Si675    Si       0.05947    0.97764    0.92756    1.000
    N676     N        0.09812    0.99563    0.93561    1.000
    N677     N        0.09315    0.89778    0.98779    1.000
    N678     N        0.05472    0.88576    0.93396    1.000
    N679     N        0.10831    0.89807    0.87840    1.000
    Si680    Si       0.06593    0.90671    0.89568    1.000
    N681     N        0.06210    0.95342    0.96435    1.000
    N682     N        0.06175    0.94993    0.89525    1.000
    N683     N        0.12176    0.11665    0.07270    1.000
    N684     N        0.14779    0.02002    0.02881    1.000
    Si685    Si       0.16026    0.09704    0.07932    1.000
    N686     N        0.15446    0.06051    0.09875    1.000
    N687     N        0.12125    0.14969    0.00930    1.000
    N688     N        0.14261    0.22261    0.11237    1.000
    Si689    Si       0.13009    0.19121    0.01922    1.000
    N690     N        0.10980    0.19685    0.05603    1.000
    Si691    Si       0.10894    0.19980    0.09920    1.000
    N692     N        0.10717    0.16288    0.12414    1.000
    Si693    Si       0.15987    0.07699    0.17459    1.000
    N694     N        0.14206    0.03972    0.16512    1.000
    N695     N        0.15407    0.11715    0.15776    1.000
    Si696    Si       0.14500    0.05397    0.24118    1.000
    N697     N        0.13196    0.10294    0.24275    1.000
    N698     N        0.14990    0.01116    0.23124    1.000
    Si699    Si       0.14312    0.22648    0.15656    1.000
    Si700    Si       0.12891    0.14723    0.23108    1.000
    Si701    Si       0.13102    0.15518    0.16046    1.000
    N702     N        0.13889    0.20541    0.23124    1.000
    N703     N        0.15901    0.18792    0.16380    1.000
    N704     N        0.16384    0.25718    0.17542    1.000
    Si705    Si       0.13327    0.08085    0.35525    1.000
    N706     N        0.14225    0.03678    0.35922    1.000
    N707     N        0.15790    0.10430    0.32942    1.000
    Si708    Si       0.14706    0.14840    0.33060    1.000
    Si709    Si       0.13614    0.20007    0.27471    1.000
    N710     N        0.12939    0.24269    0.28749    1.000
    N711     N        0.16121    0.18210    0.30504    1.000
    N712     N        0.11107    0.16350    0.26664    1.000
    N713     N        0.13967    0.24345    0.37104    1.000
    N714     N        0.15643    0.16547    0.37054    1.000
    N715     N        0.12999    0.03741    0.42988    1.000
    N716     N        0.15089    0.09240    0.39396    1.000
    Si717    Si       0.11691    0.01858    0.39172    1.000
    N718     N        0.12886    0.06247    0.49159    1.000
    Si719    Si       0.16577    0.05978    0.41773    1.000
    Si720    Si       0.11871    0.10497    0.49466    1.000
    Si721    Si       0.10532    0.03565    0.46495    1.000
    N722     N        0.15620    0.12459    0.50028    1.000
    Si723    Si       0.15638    0.19164    0.44247    1.000
    N724     N        0.16302    0.14890    0.43664    1.000
    Si725    Si       0.14599    0.13582    0.40035    1.000
    Si726    Si       0.12622    0.22008    0.48486    1.000
    N727     N        0.11513    0.20130    0.44516    1.000
    N728     N        0.16543    0.19995    0.48569    1.000
    N729     N        0.12737    0.03792    0.56262    1.000
    N730     N        0.15059    0.10511    0.60181    1.000
    Si731    Si       0.11988    0.11767    0.57401    1.000
    N732     N        0.10731    0.09893    0.53496    1.000
    Si733    Si       0.10688    0.05170    0.52730    1.000
    N734     N        0.14106    0.15457    0.55685    1.000
    N735     N        0.15440    0.21948    0.55805    1.000
    Si736    Si       0.12007    0.19371    0.55294    1.000
    N737     N        0.12274    0.24808    0.61795    1.000
    Si738    Si       0.14568    0.25627    0.58156    1.000
    Si739    Si       0.15057    0.08271    0.63929    1.000
    N740     N        0.12417    0.04166    0.70139    1.000
    N741     N        0.13020    0.04251    0.63132    1.000
    Si742    Si       0.13792    0.01954    0.66609    1.000
    Si743    Si       0.12096    0.08567    0.70078    1.000
    N744     N        0.11841    0.10091    0.66069    1.000
    N745     N        0.15141    0.10760    0.72078    1.000
    Si746    Si       0.11721    0.21801    0.71209    1.000
    N747     N        0.13971    0.23728    0.68043    1.000
    Si748    Si       0.13820    0.03529    0.84228    1.000
    Si749    Si       0.14783    0.10538    0.82685    1.000
    Si750    Si       0.13070    0.10955    0.75910    1.000
    N751     N        0.11869    0.06852    0.76701    1.000
    N752     N        0.16449    0.13294    0.85523    1.000
    N753     N        0.16328    0.11621    0.78829    1.000
    N754     N        0.10476    0.09797    0.82566    1.000
    Si755    Si       0.11283    0.03324    0.74241    1.000
    Si756    Si       0.13844    0.17971    0.76995    1.000
    N757     N        0.13678    0.18064    0.81189    1.000
    N758     N        0.13179    0.22002    0.75324    1.000
    Si759    Si       0.14562    0.25510    0.77645    1.000
    Si760    Si       0.16368    0.17547    0.84502    1.000
    N761     N        0.15177    0.25569    0.82219    1.000
    N762     N        0.10765    0.24625    0.87322    1.000
    N763     N        0.10901    0.14779    0.76069    1.000
    N764     N        0.14749    0.05145    0.93971    1.000
    N765     N        0.15672    0.11872    0.91546    1.000
    Si766    Si       0.14904    0.09383    0.94911    1.000
    N767     N        0.12535    0.02136    0.87975    1.000
    Si768    Si       0.11181    0.03191    0.92005    1.000
    N769     N        0.10808    0.10849    0.95786    1.000
    Si770    Si       0.13582    0.14552    0.88850    1.000
    N771     N        0.14658    0.18714    0.88153    1.000
    N772     N        0.13414    0.23091    0.93660    1.000
    Si773    Si       0.11691    0.15124    0.96588    1.000
    Si774    Si       0.14062    0.22809    0.89364    1.000
    N775     N        0.15629    0.17081    0.95360    1.000
    N776     N        0.12701    0.30911    0.08638    1.000
    N777     N        0.14468    0.31280    0.02580    1.000
    Si778    Si       0.16018    0.29636    0.06302    1.000
    Si779    Si       0.16425    0.34699    0.00438    1.000
    Si780    Si       0.10857    0.31930    0.00295    1.000
    N781     N        0.11634    0.42694    0.01247    1.000
    N782     N        0.15282    0.49006    0.01078    1.000
    Si783    Si       0.11947    0.42703    0.05578    1.000
    N784     N        0.11401    0.41674    0.10048    1.000
    N785     N        0.15887    0.49136    0.10730    1.000
    Si786    Si       0.11603    0.50286    0.03493    1.000
    N787     N        0.16235    0.43606    0.06156    1.000
    N788     N        0.11504    0.35948    0.13149    1.000
    Si789    Si       0.13062    0.31748    0.12776    1.000
    Si790    Si       0.13541    0.28557    0.19176    1.000
    N791     N        0.15617    0.32205    0.20078    1.000
    N792     N        0.10896    0.26958    0.22461    1.000
    Si793    Si       0.16561    0.33476    0.24138    1.000
    Si794    Si       0.12042    0.38146    0.21079    1.000
    N795     N        0.10782    0.29745    0.15947    1.000
    N796     N        0.14811    0.38569    0.17672    1.000
    N797     N        0.13268    0.46097    0.16661    1.000
    Si798    Si       0.14165    0.45337    0.21019    1.000
    Si799    Si       0.16115    0.49365    0.15059    1.000
    N800     N        0.12021    0.42208    0.22836    1.000
    N801     N        0.11494    0.48824    0.22427    1.000
    Si802    Si       0.13784    0.39956    0.13744    1.000
    N803     N        0.13739    0.31376    0.36861    1.000
    Si804    Si       0.16270    0.27936    0.36686    1.000
    N805     N        0.13565    0.36496    0.24774    1.000
    N806     N        0.14506    0.38047    0.33697    1.000
    Si807    Si       0.13094    0.40398    0.26786    1.000
    N808     N        0.16837    0.41790    0.28289    1.000
    Si809    Si       0.13129    0.33508    0.41229    1.000
    N810     N        0.14368    0.31324    0.44527    1.000
    Si811    Si       0.11892    0.30212    0.47790    1.000
    N812     N        0.12832    0.26165    0.48587    1.000
    N813     N        0.12592    0.38788    0.47347    1.000
    N814     N        0.12329    0.50038    0.48555    1.000
    N815     N        0.14117    0.43500    0.41483    1.000
    Si816    Si       0.15217    0.41546    0.45269    1.000
    N817     N        0.16507    0.44476    0.48573    1.000
    Si818    Si       0.14913    0.46353    0.38240    1.000
    N819     N        0.12489    0.32933    0.51369    1.000
    Si820    Si       0.14471    0.36653    0.50664    1.000
    N821     N        0.11533    0.27676    0.55786    1.000
    N822     N        0.11351    0.33721    0.58917    1.000
    Si823    Si       0.10592    0.31911    0.55195    1.000
    Si824    Si       0.15499    0.39322    0.57597    1.000
    N825     N        0.12886    0.39151    0.53961    1.000
    N826     N        0.13052    0.41489    0.60514    1.000
    N827     N        0.11903    0.46177    0.54519    1.000
    Si828    Si       0.14729    0.47544    0.51205    1.000
    Si829    Si       0.15872    0.44762    0.60463    1.000
    Si830    Si       0.14287    0.33871    0.61877    1.000
    Si831    Si       0.15819    0.37217    0.68440    1.000
    N832     N        0.15547    0.30412    0.63986    1.000
    Si833    Si       0.13164    0.27105    0.65466    1.000
    N834     N        0.13674    0.34217    0.71029    1.000
    N835     N        0.12806    0.36326    0.65296    1.000
    N836     N        0.11025    0.43651    0.66450    1.000
    N837     N        0.15443    0.40919    0.70792    1.000
    N838     N        0.13952    0.47140    0.72250    1.000
    N839     N        0.13838    0.48394    0.61914    1.000
    Si840    Si       0.10916    0.40120    0.64035    1.000
    Si841    Si       0.12001    0.43708    0.70694    1.000
    N842     N        0.11799    0.33925    0.78079    1.000
    N843     N        0.13011    0.30566    0.85794    1.000
    Si844    Si       0.11943    0.37636    0.80513    1.000
    Si845    Si       0.11278    0.27105    0.83463    1.000
    Si846    Si       0.14867    0.33140    0.75120    1.000
    N847     N        0.16357    0.29229    0.75779    1.000
    N848     N        0.12869    0.38070    0.84597    1.000
    Si849    Si       0.15078    0.47429    0.85923    1.000
    N850     N        0.13550    0.40893    0.78071    1.000
    N851     N        0.11254    0.46544    0.84148    1.000
    Si852    Si       0.12579    0.37899    0.94742    1.000
    Si853    Si       0.11649    0.32049    0.89635    1.000
    N854     N        0.12538    0.35777    0.98532    1.000
    N855     N        0.14701    0.29844    0.91511    1.000
    Si856    Si       0.13411    0.27383    0.94888    1.000
    N857     N        0.11770    0.36035    0.91017    1.000
    N858     N        0.11835    0.46036    0.95763    1.000
    Si859    Si       0.14443    0.45162    0.99125    1.000
    N860     N        0.16568    0.39645    0.93623    1.000
    Si861    Si       0.11072    0.50300    0.96283    1.000
    N862     N        0.12703    0.53478    0.06280    1.000
    Si863    Si       0.16364    0.52844    0.08616    1.000
    N864     N        0.12996    0.63176    0.99950    1.000
    Si865    Si       0.13629    0.71261    0.05336    1.000
    N866     N        0.12650    0.66962    0.06828    1.000
    Si867    Si       0.14723    0.67166    0.10924    1.000
    N868     N        0.11933    0.70120    0.01410    1.000
    Si869    Si       0.12039    0.74739    0.11612    1.000
    N870     N        0.11787    0.74815    0.07323    1.000
    Si871    Si       0.11208    0.65955    0.02765    1.000
    Si872    Si       0.13773    0.56402    0.14206    1.000
    N873     N        0.13960    0.52906    0.16625    1.000
    N874     N        0.14520    0.59881    0.16855    1.000
    Si875    Si       0.11083    0.52371    0.19786    1.000
    Si876    Si       0.11897    0.63373    0.16624    1.000
    N877     N        0.13321    0.67098    0.18708    1.000
    Si878    Si       0.11338    0.70590    0.16942    1.000
    N879     N        0.13158    0.74035    0.19178    1.000
    N880     N        0.11988    0.64172    0.12459    1.000
    Si881    Si       0.15624    0.67227    0.22492    1.000
    N882     N        0.13280    0.70824    0.12928    1.000
    Si883    Si       0.14427    0.61281    0.35114    1.000
    N884     N        0.14356    0.60294    0.27690    1.000
    N885     N        0.12057    0.57840    0.34006    1.000
    Si886    Si       0.11985    0.53729    0.35622    1.000
    N887     N        0.14798    0.53679    0.26261    1.000
    Si888    Si       0.12046    0.52677    0.29697    1.000
    N889     N        0.14780    0.51691    0.33036    1.000
    Si890    Si       0.12336    0.57240    0.25441    1.000
    Si891    Si       0.11736    0.64008    0.28780    1.000
    N892     N        0.13025    0.67144    0.26082    1.000
    N893     N        0.12782    0.64856    0.33062    1.000
    N894     N        0.12560    0.75096    0.26535    1.000
    Si895    Si       0.14643    0.71248    0.27428    1.000
    Si896    Si       0.15012    0.71443    0.36070    1.000
    N897     N        0.15914    0.71534    0.31410    1.000
    N898     N        0.10947    0.70217    0.36961    1.000
    N899     N        0.15445    0.75958    0.35737    1.000
    N900     N        0.13759    0.57066    0.45162    1.000
    Si901    Si       0.14559    0.53626    0.48006    1.000
    N902     N        0.13972    0.61307    0.39462    1.000
    N903     N        0.12820    0.53850    0.40032    1.000
    Si904    Si       0.16393    0.59937    0.42885    1.000
    Si905    Si       0.16832    0.53129    0.41777    1.000
    Si906    Si       0.10861    0.68705    0.46357    1.000
    N907     N        0.15272    0.68581    0.47746    1.000
    N908     N        0.11195    0.65025    0.44306    1.000
    Si909    Si       0.11414    0.75743    0.45138    1.000
    Si910    Si       0.15137    0.57574    0.60260    1.000
    N911     N        0.12115    0.58905    0.57376    1.000
    Si912    Si       0.13058    0.58601    0.53068    1.000
    N913     N        0.14678    0.62230    0.51329    1.000
    N914     N        0.15310    0.55069    0.52229    1.000
    N915     N        0.12211    0.72518    0.58405    1.000
    Si916    Si       0.12244    0.75004    0.54476    1.000
    N917     N        0.15846    0.72831    0.53172    1.000
    Si918    Si       0.16161    0.71048    0.57193    1.000
    N919     N        0.13718    0.53891    0.71011    1.000
    N920     N        0.14110    0.55816    0.64181    1.000
    Si921    Si       0.12946    0.57353    0.68058    1.000
    N922     N        0.15663    0.60210    0.70170    1.000
    Si923    Si       0.14382    0.61196    0.74199    1.000
    Si924    Si       0.15992    0.52046    0.63000    1.000
    Si925    Si       0.11268    0.50687    0.72692    1.000
    N926     N        0.14384    0.71741    0.71198    1.000
    Si927    Si       0.10913    0.67085    0.64857    1.000
    N928     N        0.11075    0.71732    0.65373    1.000
    Si929    Si       0.12663    0.67857    0.72295    1.000
    N930     N        0.15745    0.65298    0.74442    1.000
    Si931    Si       0.14409    0.73785    0.67310    1.000
    N932     N        0.14593    0.65742    0.63239    1.000
    N933     N        0.13061    0.52768    0.81579    1.000
    Si934    Si       0.12193    0.55786    0.78699    1.000
    Si935    Si       0.13877    0.54641    0.85456    1.000
    N936     N        0.15670    0.57722    0.76677    1.000
    Si937    Si       0.11284    0.70162    0.79087    1.000
    N938     N        0.15469    0.71445    0.78586    1.000
    Si939    Si       0.13314    0.68570    0.86340    1.000
    N940     N        0.11125    0.67649    0.82624    1.000
    Si941    Si       0.15839    0.73656    0.74905    1.000
    Si942    Si       0.15553    0.56341    0.95663    1.000
    N943     N        0.15474    0.51354    0.87798    1.000
    N944     N        0.14970    0.51910    0.94928    1.000
    Si945    Si       0.12496    0.62192    0.95595    1.000
    N946     N        0.11607    0.57975    0.95068    1.000
    N947     N        0.10503    0.56444    0.87940    1.000
    N948     N        0.14595    0.64691    0.87022    1.000
    Si949    Si       0.15816    0.74692    0.95496    1.000
    N950     N        0.11759    0.73068    0.94952    1.000
    N951     N        0.12556    0.81018    0.04496    1.000
    N952     N        0.12947    0.84610    0.10564    1.000
    Si953    Si       0.14818    0.80386    0.00584    1.000
    Si954    Si       0.12447    0.84932    0.06296    1.000
    Si955    Si       0.15238    0.88357    0.10956    1.000
    N956     N        0.13965    0.84745    0.99562    1.000
    N957     N        0.14895    0.88821    0.06608    1.000
    N958     N        0.14175    0.99602    0.10968    1.000
    Si959    Si       0.15723    0.97942    0.01476    1.000
    N960     N        0.16192    0.95728    0.05341    1.000
    N961     N        0.12315    0.96321    0.99553    1.000
    Si962    Si       0.11371    0.75870    0.22454    1.000
    Si963    Si       0.16136    0.76458    0.16949    1.000
    N964     N        0.13973    0.78271    0.13481    1.000
    N965     N        0.12830    0.80045    0.23174    1.000
    Si966    Si       0.15221    0.82645    0.20837    1.000
    N967     N        0.12722    0.84226    0.17594    1.000
    Si968    Si       0.11834    0.82076    0.13924    1.000
    N969     N        0.12783    0.91254    0.13301    1.000
    N970     N        0.12629    0.90613    0.20200    1.000
    Si971    Si       0.12274    0.93393    0.17056    1.000
    N972     N        0.15035    0.96616    0.17452    1.000
    Si973    Si       0.15282    0.90199    0.23659    1.000
    Si974    Si       0.13717    0.00442    0.19060    1.000
    Si975    Si       0.14276    0.78959    0.27646    1.000
    N976     N        0.12390    0.82711    0.28830    1.000
    Si977    Si       0.13991    0.86405    0.30227    1.000
    N978     N        0.12708    0.82724    0.36627    1.000
    N979     N        0.11998    0.96507    0.26079    1.000
    N980     N        0.14159    0.90147    0.27762    1.000
    N981     N        0.13358    0.95094    0.33177    1.000
    Si982    Si       0.11841    0.93638    0.29194    1.000
    Si983    Si       0.16178    0.97394    0.25214    1.000
    Si984    Si       0.12386    0.78432    0.37712    1.000
    N985     N        0.14025    0.85860    0.42413    1.000
    N986     N        0.13036    0.78474    0.42042    1.000
    Si987    Si       0.16035    0.83664    0.39375    1.000
    Si988    Si       0.16048    0.86157    0.46128    1.000
    N989     N        0.16007    0.82122    0.47750    1.000
    Si990    Si       0.16493    0.79225    0.44343    1.000
    N991     N        0.15893    0.76002    0.47204    1.000
    Si992    Si       0.11305    0.94847    0.37047    1.000
    N993     N        0.13046    0.97915    0.39533    1.000
    N994     N        0.14078    0.88497    0.49453    1.000
    N995     N        0.13183    0.96865    0.46475    1.000
    Si996    Si       0.14289    0.95168    0.42495    1.000
    N997     N        0.12755    0.91925    0.40016    1.000
    N998     N        0.13769    0.79074    0.53742    1.000
    N999     N        0.13671    0.87108    0.56332    1.000
    Si1000   Si       0.14693    0.82500    0.56415    1.000
    N1001    N        0.15587    0.81120    0.60422    1.000
    Si1002   Si       0.16552    0.79176    0.50611    1.000
    N1003    N        0.12645    0.95982    0.53215    1.000
    N1004    N        0.12778    0.96854    0.59384    1.000
    Si1005   Si       0.16151    0.96524    0.55934    1.000
    Si1006   Si       0.16171    0.89108    0.59340    1.000
    N1007    N        0.13330    0.77900    0.68104    1.000
    Si1008   Si       0.13777    0.80811    0.64533    1.000
    Si1009   Si       0.13595    0.80260    0.71871    1.000
    N1010    N        0.11530    0.84701    0.64331    1.000
    N1011    N        0.15439    0.87636    0.69524    1.000
    N1012    N        0.13832    0.93748    0.72609    1.000
    N1013    N        0.13425    0.97546    0.66782    1.000
    Si1014   Si       0.14480    0.89502    0.73352    1.000
    Si1015   Si       0.11418    0.95075    0.69413    1.000
    Si1016   Si       0.12839    0.88576    0.66169    1.000
    Si1017   Si       0.14619    0.95468    0.63096    1.000
    N1018    N        0.14505    0.90982    0.62905    1.000
    Si1019   Si       0.12396    0.84546    0.82002    1.000
    Si1020   Si       0.12323    0.77324    0.79201    1.000
    N1021    N        0.13405    0.82837    0.85871    1.000
    N1022    N        0.15052    0.76443    0.82435    1.000
    Si1023   Si       0.15273    0.78956    0.86044    1.000
    N1024    N        0.13620    0.77350    0.75020    1.000
    N1025    N        0.11027    0.88101    0.75623    1.000
    N1026    N        0.16486    0.85451    0.80976    1.000
    N1027    N        0.12661    0.91202    0.81326    1.000
    N1028    N        0.12385    0.99660    0.76433    1.000
    Si1029   Si       0.12039    0.92904    0.85283    1.000
    N1030    N        0.16192    0.99768    0.83442    1.000
    Si1031   Si       0.15420    0.96882    0.75036    1.000
    Si1032   Si       0.16688    0.90950    0.79646    1.000
    N1033    N        0.14636    0.78599    0.96626    1.000
    N1034    N        0.11379    0.84551    0.92417    1.000
    Si1035   Si       0.13072    0.86098    0.88811    1.000
    N1036    N        0.13395    0.77339    0.89585    1.000
    Si1037   Si       0.13190    0.80515    0.92808    1.000
    N1038    N        0.13789    0.91847    0.94097    1.000
    Si1039   Si       0.12816    0.92116    0.98292    1.000
    N1040    N        0.15132    0.94580    0.87791    1.000
    Si1041   Si       0.15329    0.98802    0.87543    1.000
    Si1042   Si       0.19697    0.11157    0.01380    1.000
    N1043    N        0.18826    0.12281    0.09994    1.000
    Si1044   Si       0.18491    0.03972    0.04343    1.000
    N1045    N        0.17726    0.08254    0.04274    1.000
    N1046    N        0.21877    0.03432    0.01690    1.000
    N1047    N        0.20120    0.01370    0.07621    1.000
    N1048    N        0.20413    0.18738    0.09119    1.000
    Si1049   Si       0.21312    0.14914    0.07370    1.000
    Si1050   Si       0.18564    0.22920    0.09604    1.000
    N1051    N        0.19518    0.14907    0.03468    1.000
    Si1052   Si       0.20771    0.18734    0.01185    1.000
    N1053    N        0.16813    0.20671    0.00708    1.000
    N1054    N        0.17894    0.25745    0.06422    1.000
    N1055    N        0.19605    0.06896    0.14942    1.000
    Si1056   Si       0.19824    0.11504    0.14128    1.000
    N1057    N        0.17718    0.06940    0.21277    1.000
    Si1058   Si       0.21790    0.05689    0.22816    1.000
    Si1059   Si       0.18205    0.10637    0.23975    1.000
    Si1060   Si       0.16487    0.03235    0.12817    1.000
    Si1061   Si       0.22580    0.22974    0.24451    1.000
    N1062    N        0.20794    0.21232    0.20885    1.000
    N1063    N        0.21191    0.15631    0.16477    1.000
    Si1064   Si       0.21886    0.18716    0.13222    1.000
    N1065    N        0.20926    0.23017    0.13400    1.000
    Si1066   Si       0.20584    0.24375    0.17566    1.000
    N1067    N        0.17297    0.14404    0.21977    1.000
    Si1068   Si       0.18899    0.17519    0.19636    1.000
    N1069    N        0.20032    0.04551    0.32708    1.000
    Si1070   Si       0.19584    0.02427    0.28809    1.000
    Si1071   Si       0.19189    0.08732    0.30968    1.000
    Si1072   Si       0.18262    0.02474    0.35955    1.000
    N1073    N        0.19205    0.12059    0.27847    1.000
    N1074    N        0.17025    0.05935    0.27521    1.000
    N1075    N        0.19755    0.23408    0.27942    1.000
    N1076    N        0.20426    0.21062    0.35159    1.000
    Si1077   Si       0.19962    0.20282    0.30953    1.000
    N1078    N        0.19650    0.03688    0.39950    1.000
    Si1079   Si       0.17673    0.11974    0.46389    1.000
    N1080    N        0.18302    0.07838    0.45394    1.000
    Si1081   Si       0.17212    0.04813    0.48485    1.000
    Si1082   Si       0.21720    0.01716    0.43056    1.000
    N1083    N        0.18754    0.01340    0.46315    1.000
    Si1084   Si       0.21580    0.23267    0.43309    1.000
    Si1085   Si       0.20328    0.17621    0.48285    1.000
    N1086    N        0.18051    0.21481    0.41457    1.000
    N1087    N        0.21450    0.13492    0.47561    1.000
    Si1088   Si       0.16592    0.20734    0.37266    1.000
    N1089    N        0.19591    0.05601    0.59332    1.000
    N1090    N        0.19171    0.04549    0.52392    1.000
    Si1091   Si       0.19207    0.09988    0.59237    1.000
    N1092    N        0.19966    0.10658    0.54949    1.000
    Si1093   Si       0.22038    0.01693    0.58995    1.000
    Si1094   Si       0.16932    0.03604    0.56260    1.000
    N1095    N        0.21436    0.12986    0.61181    1.000
    Si1096   Si       0.17554    0.14022    0.53485    1.000
    N1097    N        0.20714    0.17424    0.52718    1.000
    N1098    N        0.21263    0.24748    0.52958    1.000
    Si1099   Si       0.18540    0.21243    0.52825    1.000
    N1100    N        0.21292    0.05335    0.72172    1.000
    Si1101   Si       0.18908    0.11498    0.70122    1.000
    Si1102   Si       0.20847    0.05157    0.67920    1.000
    N1103    N        0.18061    0.02056    0.66580    1.000
    N1104    N        0.18486    0.08593    0.66669    1.000
    Si1105   Si       0.20876    0.01564    0.74251    1.000
    N1106    N        0.22025    0.11973    0.73621    1.000
    Si1107   Si       0.17703    0.22068    0.66690    1.000
    N1108    N        0.19745    0.22333    0.70553    1.000
    N1109    N        0.20333    0.24563    0.64435    1.000
    N1110    N        0.21134    0.14659    0.68278    1.000
    N1111    N        0.17242    0.18289    0.64530    1.000
    Si1112   Si       0.20846    0.16050    0.64221    1.000
    Si1113   Si       0.20511    0.05030    0.81248    1.000
    N1114    N        0.19948    0.01773    0.78490    1.000
    N1115    N        0.16500    0.06552    0.83157    1.000
    Si1116   Si       0.19802    0.13732    0.77153    1.000
    N1117    N        0.20172    0.19663    0.83641    1.000
    N1118    N        0.19039    0.23805    0.77734    1.000
    Si1119   Si       0.19304    0.23940    0.82400    1.000
    N1120    N        0.17825    0.17291    0.75462    1.000
    Si1121   Si       0.20291    0.20696    0.74489    1.000
    Si1122   Si       0.19262    0.11020    0.88775    1.000
    N1123    N        0.18009    0.11006    0.97365    1.000
    N1124    N        0.20224    0.06950    0.90669    1.000
    Si1125   Si       0.18684    0.03719    0.92816    1.000
    N1126    N        0.21938    0.01291    0.95020    1.000
    N1127    N        0.20632    0.21586    0.94284    1.000
    Si1128   Si       0.21180    0.24912    0.91528    1.000
    N1129    N        0.18003    0.24782    0.88507    1.000
    N1130    N        0.21613    0.13962    0.91195    1.000
    Si1131   Si       0.19123    0.14451    0.94922    1.000
    Si1132   Si       0.16695    0.21595    0.96244    1.000
    N1133    N        0.19921    0.31582    0.07074    1.000
    Si1134   Si       0.21143    0.35744    0.06091    1.000
    N1135    N        0.18213    0.37433    0.03469    1.000
    Si1136   Si       0.21481    0.27826    0.05260    1.000
    Si1137   Si       0.20927    0.32956    0.11226    1.000
    N1138    N        0.21897    0.36966    0.10048    1.000
    Si1139   Si       0.18914    0.41857    0.03339    1.000
    Si1140   Si       0.17563    0.45071    0.09905    1.000
    N1141    N        0.21862    0.46140    0.09835    1.000
    N1142    N        0.20930    0.34801    0.23683    1.000
    N1143    N        0.21249    0.36740    0.16994    1.000
    N1144    N        0.17240    0.32696    0.13357    1.000
    Si1145   Si       0.17146    0.34965    0.17013    1.000
    N1146    N        0.23320    0.27354    0.23812    1.000
    Si1147   Si       0.21259    0.39503    0.13533    1.000
    N1148    N        0.20011    0.48430    0.16575    1.000
    N1149    N        0.17721    0.41684    0.12701    1.000
    N1150    N        0.18137    0.45662    0.22685    1.000
    Si1151   Si       0.21213    0.48346    0.20771    1.000
    N1152    N        0.18113    0.28109    0.32700    1.000
    N1153    N        0.20494    0.34239    0.34567    1.000
    Si1154   Si       0.21682    0.30615    0.32636    1.000
    Si1155   Si       0.21812    0.30956    0.25514    1.000
    N1156    N        0.17447    0.30155    0.26656    1.000
    Si1157   Si       0.16909    0.26501    0.29021    1.000
    Si1158   Si       0.16390    0.34781    0.35950    1.000
    N1159    N        0.19619    0.48313    0.28702    1.000
    Si1160   Si       0.19680    0.44432    0.26411    1.000
    Si1161   Si       0.18316    0.49047    0.32851    1.000
    N1162    N        0.21530    0.40648    0.32840    1.000
    Si1163   Si       0.17340    0.41404    0.32522    1.000
    N1164    N        0.16947    0.45217    0.34626    1.000
    N1165    N        0.21772    0.50909    0.34829    1.000
    Si1166   Si       0.22224    0.34709    0.48833    1.000
    N1167    N        0.20646    0.33620    0.44787    1.000
    N1168    N        0.19540    0.28892    0.39511    1.000
    N1169    N        0.20472    0.26596    0.45923    1.000
    Si1170   Si       0.20144    0.37132    0.41863    1.000
    Si1171   Si       0.18573    0.29953    0.43772    1.000
    N1172    N        0.16311    0.36139    0.40028    1.000
    Si1173   Si       0.20702    0.43534    0.47558    1.000
    Si1174   Si       0.22203    0.49392    0.38829    1.000
    N1175    N        0.17859    0.49198    0.39810    1.000
    N1176    N        0.19473    0.40398    0.44683    1.000
    N1177    N        0.17498    0.36302    0.60152    1.000
    N1178    N        0.18621    0.27426    0.58812    1.000
    N1179    N        0.18657    0.36488    0.50726    1.000
    N1180    N        0.18102    0.42777    0.57035    1.000
    N1181    N        0.18342    0.48889    0.53660    1.000
    Si1182   Si       0.20810    0.45233    0.54734    1.000
    Si1183   Si       0.20913    0.36240    0.62728    1.000
    N1184    N        0.19783    0.36380    0.67041    1.000
    Si1185   Si       0.19699    0.29078    0.63356    1.000
    N1186    N        0.20999    0.29533    0.68025    1.000
    N1187    N        0.21100    0.47512    0.70612    1.000
    Si1188   Si       0.21070    0.47306    0.66215    1.000
    N1189    N        0.19129    0.44688    0.63142    1.000
    Si1190   Si       0.18108    0.47202    0.73676    1.000
    Si1191   Si       0.20385    0.28099    0.76707    1.000
    N1192    N        0.18026    0.36317    0.75891    1.000
    N1193    N        0.20215    0.31344    0.86674    1.000
    N1194    N        0.21654    0.31728    0.79337    1.000
    N1195    N        0.18013    0.48062    0.82643    1.000
    N1196    N        0.19443    0.43597    0.75792    1.000
    N1197    N        0.21385    0.38552    0.87055    1.000
    Si1198   Si       0.16726    0.40372    0.74981    1.000
    Si1199   Si       0.22012    0.46503    0.83235    1.000
    N1200    N        0.16861    0.26314    0.97319    1.000
    N1201    N        0.19710    0.33165    0.98097    1.000
    Si1202   Si       0.20332    0.28789    0.97505    1.000
    Si1203   Si       0.16662    0.29078    0.87629    1.000
    Si1204   Si       0.18736    0.40609    0.89821    1.000
    N1205    N        0.22260    0.42147    0.92574    1.000
    N1206    N        0.17289    0.44350    0.88256    1.000
    Si1207   Si       0.19769    0.40916    0.96176    1.000
    N1208    N        0.18268    0.43205    0.99338    1.000
    N1209    N        0.21026    0.49586    0.91490    1.000
    N1210    N        0.19328    0.53015    0.05401    1.000
    N1211    N        0.20612    0.61604    0.01622    1.000
    Si1212   Si       0.20953    0.57946    0.11199    1.000
    Si1213   Si       0.18056    0.52553    0.01265    1.000
    N1214    N        0.16827    0.56235    0.11274    1.000
    Si1215   Si       0.16776    0.60746    0.99999    1.000
    N1216    N        0.22532    0.60956    0.08301    1.000
    N1217    N        0.16633    0.56399    0.99887    1.000
    N1218    N        0.17891    0.71905    0.05177    1.000
    Si1219   Si       0.19601    0.74138    0.01710    1.000
    N1220    N        0.18974    0.67166    0.10484    1.000
    Si1221   Si       0.20857    0.70346    0.07984    1.000
    Si1222   Si       0.21903    0.64096    0.11146    1.000
    N1223    N        0.21076    0.52099    0.22956    1.000
    N1224    N        0.21027    0.58441    0.20555    1.000
    Si1225   Si       0.18470    0.60860    0.18111    1.000
    N1226    N        0.20592    0.61181    0.14086    1.000
    Si1227   Si       0.21693    0.62110    0.23024    1.000
    Si1228   Si       0.22052    0.70765    0.24481    1.000
    N1229    N        0.17747    0.70691    0.24172    1.000
    N1230    N        0.19825    0.74677    0.15581    1.000
    N1231    N        0.18589    0.64225    0.21245    1.000
    N1232    N        0.18498    0.60578    0.33531    1.000
    Si1233   Si       0.18361    0.59114    0.29334    1.000
    N1234    N        0.20358    0.55237    0.29735    1.000
    Si1235   Si       0.18914    0.52205    0.26714    1.000
    N1236    N        0.21333    0.61416    0.27166    1.000
    Si1237   Si       0.22004    0.61225    0.35875    1.000
    N1238    N        0.22415    0.74318    0.32113    1.000
    Si1239   Si       0.18074    0.75334    0.32134    1.000
    N1240    N        0.18075    0.52249    0.46026    1.000
    N1241    N        0.18919    0.56962    0.40955    1.000
    N1242    N        0.18969    0.62341    0.45267    1.000
    Si1243   Si       0.22243    0.50941    0.46033    1.000
    N1244    N        0.21267    0.63554    0.39490    1.000
    Si1245   Si       0.17335    0.72168    0.49145    1.000
    N1246    N        0.21505    0.72234    0.48160    1.000
    Si1247   Si       0.17148    0.64490    0.48690    1.000
    N1248    N        0.17864    0.69639    0.38642    1.000
    Si1249   Si       0.21378    0.67866    0.40222    1.000
    N1250    N        0.18390    0.60467    0.60046    1.000
    Si1251   Si       0.18027    0.53192    0.54929    1.000
    N1252    N        0.21301    0.56105    0.54741    1.000
    Si1253   Si       0.21961    0.59060    0.57988    1.000
    N1254    N        0.16674    0.53691    0.58911    1.000
    N1255    N        0.20794    0.66079    0.50696    1.000
    N1256    N        0.19093    0.73138    0.59665    1.000
    Si1257   Si       0.17985    0.64627    0.60737    1.000
    N1258    N        0.18137    0.67025    0.57223    1.000
    Si1259   Si       0.21896    0.66181    0.54835    1.000
    Si1260   Si       0.22596    0.70246    0.60099    1.000
    N1261    N        0.20750    0.56040    0.71579    1.000
    Si1262   Si       0.20188    0.60165    0.70218    1.000
    Si1263   Si       0.17314    0.54631    0.73565    1.000
    N1264    N        0.22141    0.62651    0.73609    1.000
    N1265    N        0.19665    0.51354    0.65048    1.000
    Si1266   Si       0.20757    0.72568    0.69935    1.000
    N1267    N        0.19947    0.74461    0.74014    1.000
    N1268    N        0.18738    0.74276    0.66484    1.000
    N1269    N        0.21311    0.66556    0.62707    1.000
    Si1270   Si       0.19948    0.66418    0.73926    1.000
    N1271    N        0.20831    0.68334    0.69979    1.000
    Si1272   Si       0.18310    0.58610    0.80406    1.000
    N1273    N        0.20907    0.55334    0.80067    1.000
    Si1274   Si       0.17563    0.62063    0.85465    1.000
    N1275    N        0.19462    0.62550    0.81429    1.000
    Si1276   Si       0.19698    0.51316    0.79943    1.000
    N1277    N        0.18017    0.51008    0.75814    1.000
    N1278    N        0.16246    0.58159    0.84265    1.000
    N1279    N        0.21698    0.73952    0.81343    1.000
    Si1280   Si       0.17472    0.73016    0.82247    1.000
    N1281    N        0.21613    0.68301    0.77426    1.000
    N1282    N        0.16954    0.71084    0.86129    1.000
    N1283    N        0.16800    0.61511    0.95323    1.000
    Si1284   Si       0.20074    0.60332    0.92684    1.000
    Si1285   Si       0.17744    0.52058    0.91557    1.000
    N1286    N        0.20615    0.62075    0.88606    1.000
    N1287    N        0.18672    0.56274    0.92565    1.000
    N1288    N        0.21735    0.51490    0.99316    1.000
    N1289    N        0.18760    0.74847    0.92140    1.000
    Si1290   Si       0.19697    0.71736    0.89382    1.000
    Si1291   Si       0.21470    0.69895    0.95641    1.000
    N1292    N        0.18470    0.72307    0.97938    1.000
    N1293    N        0.20963    0.68258    0.91616    1.000
    N1294    N        0.18460    0.78445    0.02084    1.000
    N1295    N        0.20650    0.85443    0.02478    1.000
    N1296    N        0.20643    0.80722    0.08300    1.000
    Si1297   Si       0.21584    0.83697    0.11290    1.000
    Si1298   Si       0.21208    0.81035    0.03917    1.000
    N1299    N        0.19556    0.87742    0.11461    1.000
    Si1300   Si       0.20668    0.77177    0.11692    1.000
    Si1301   Si       0.21410    0.91423    0.10139    1.000
    N1302    N        0.21323    0.91241    0.05790    1.000
    Si1303   Si       0.17580    0.97813    0.08756    1.000
    N1304    N        0.19076    0.94768    0.11365    1.000
    Si1305   Si       0.17156    0.91587    0.04432    1.000
    N1306    N        0.16694    0.90990    0.00178    1.000
    N1307    N        0.19327    0.97016    0.99382    1.000
    N1308    N        0.17925    0.79744    0.19056    1.000
    Si1309   Si       0.21680    0.86349    0.23019    1.000
    N1310    N        0.17334    0.86052    0.22767    1.000
    Si1311   Si       0.22080    0.80393    0.18454    1.000
    N1312    N        0.17877    0.93837    0.23227    1.000
    Si1313   Si       0.18939    0.96647    0.15401    1.000
    N1314    N        0.22282    0.94637    0.17400    1.000
    Si1315   Si       0.21763    0.93914    0.21659    1.000
    N1316    N        0.20115    0.00828    0.14416    1.000
    N1317    N        0.18079    0.85491    0.31218    1.000
    Si1318   Si       0.20820    0.82419    0.29548    1.000
    N1319    N        0.18081    0.78810    0.29532    1.000
    Si1320   Si       0.20289    0.87998    0.34236    1.000
    N1321    N        0.20044    0.98473    0.35393    1.000
    N1322    N        0.19251    0.91969    0.32966    1.000
    N1323    N        0.18195    0.98282    0.28851    1.000
    Si1324   Si       0.18017    0.95957    0.32563    1.000
    N1325    N        0.19179    0.86361    0.38029    1.000
    N1326    N        0.18971    0.81177    0.41549    1.000
    N1327    N        0.19922    0.87615    0.45220    1.000
    Si1328   Si       0.21797    0.86824    0.41320    1.000
    Si1329   Si       0.22473    0.93979    0.43360    1.000
    N1330    N        0.18247    0.94527    0.44269    1.000
    Si1331   Si       0.17420    0.97424    0.47557    1.000
    N1332    N        0.19526    0.86801    0.60791    1.000
    N1333    N        0.18463    0.83854    0.54240    1.000
    N1334    N        0.20986    0.78692    0.51405    1.000
    Si1335   Si       0.22614    0.82534    0.53040    1.000
    N1336    N        0.22473    0.79746    0.61911    1.000
    Si1337   Si       0.19359    0.82682    0.62206    1.000
    N1338    N        0.18762    0.99744    0.57200    1.000
    N1339    N        0.19244    0.96992    0.51514    1.000
    N1340    N        0.20371    0.89676    0.51775    1.000
    Si1341   Si       0.21396    0.93187    0.54154    1.000
    N1342    N        0.17831    0.92537    0.56738    1.000
    Si1343   Si       0.22261    0.99924    0.52783    1.000
    Si1344   Si       0.16604    0.87803    0.52944    1.000
    N1345    N        0.17779    0.82291    0.66225    1.000
    N1346    N        0.17792    0.82354    0.73159    1.000
    Si1347   Si       0.18739    0.84950    0.69673    1.000
    Si1348   Si       0.20550    0.78882    0.74533    1.000
    Si1349   Si       0.20996    0.75640    0.62885    1.000
    N1350    N        0.18017    0.98844    0.72205    1.000
    N1351    N        0.18784    0.96124    0.63630    1.000
    Si1352   Si       0.18650    0.97995    0.67737    1.000
    N1353    N        0.19907    0.80263    0.78672    1.000
    N1354    N        0.19864    0.78819    0.86096    1.000
    Si1355   Si       0.18961    0.84420    0.77296    1.000
    Si1356   Si       0.18869    0.86817    0.84531    1.000
    Si1357   Si       0.21701    0.78452    0.82295    1.000
    N1358    N        0.18254    0.88810    0.75910    1.000
    N1359    N        0.19447    0.90809    0.83131    1.000
    Si1360   Si       0.19179    0.98203    0.80838    1.000
    N1361    N        0.17620    0.95121    0.78315    1.000
    N1362    N        0.17450    0.81959    0.91803    1.000
    Si1363   Si       0.20131    0.78660    0.90537    1.000
    Si1364   Si       0.19664    0.85675    0.91718    1.000
    N1365    N        0.19899    0.87379    0.95682    1.000
    N1366    N        0.17425    0.87955    0.88780    1.000
    Si1367   Si       0.17781    0.86757    0.99396    1.000
    N1368    N        0.18176    0.99991    0.90540    1.000
    N1369    N        0.20071    0.93931    0.93396    1.000
    Si1370   Si       0.22490    0.00088    0.99155    1.000
    Si1371   Si       0.19992    0.92877    0.97654    1.000
    Si1372   Si       0.21594    0.97798    0.92277    1.000
    Si1373   Si       0.16646    0.91929    0.90877    1.000
    Si1374   Si       0.25097    0.06275    0.02473    1.000
    Si1375   Si       0.26187    0.10053    0.09967    1.000
    N1376    N        0.25195    0.06588    0.06802    1.000
    N1377    N        0.23703    0.10301    0.01072    1.000
    Si1378   Si       0.24334    0.02733    0.08803    1.000
    N1379    N        0.28581    0.05160    0.99978    1.000
    N1380    N        0.25312    0.13634    0.07414    1.000
    N1381    N        0.23722    0.21200    0.02901    1.000
    Si1382   Si       0.26500    0.23063    0.05900    1.000
    Si1383   Si       0.25502    0.24683    0.00232    1.000
    N1384    N        0.24138    0.25939    0.08119    1.000
    N1385    N        0.25849    0.04041    0.12894    1.000
    Si1386   Si       0.26701    0.11373    0.23536    1.000
    N1387    N        0.24559    0.03912    0.19645    1.000
    N1388    N        0.24428    0.11136    0.13728    1.000
    Si1389   Si       0.22722    0.03938    0.15661    1.000
    N1390    N        0.22729    0.09805    0.23226    1.000
    N1391    N        0.27767    0.13697    0.20058    1.000
    Si1392   Si       0.25443    0.14590    0.16237    1.000
    N1393    N        0.26105    0.18272    0.14067    1.000
    N1394    N        0.24383    0.26213    0.17305    1.000
    Si1395   Si       0.27320    0.09440    0.33791    1.000
    N1396    N        0.26567    0.01554    0.36550    1.000
    N1397    N        0.23300    0.10269    0.32006    1.000
    N1398    N        0.22831    0.02929    0.26102    1.000
    Si1399   Si       0.28700    0.02002    0.32711    1.000
    N1400    N        0.27191    0.13421    0.27381    1.000
    Si1401   Si       0.23203    0.13493    0.29027    1.000
    N1402    N        0.26621    0.21712    0.25229    1.000
    Si1403   Si       0.27043    0.20105    0.29206    1.000
    N1404    N        0.26413    0.22783    0.32340    1.000
    N1405    N        0.23218    0.17692    0.29757    1.000
    Si1406   Si       0.24489    0.21819    0.36159    1.000
    N1407    N        0.27564    0.08184    0.37783    1.000
    Si1408   Si       0.27626    0.04349    0.39610    1.000
    N1409    N        0.25286    0.04293    0.43371    1.000
    Si1410   Si       0.26437    0.04263    0.47613    1.000
    Si1411   Si       0.25208    0.11476    0.48016    1.000
    N1412    N        0.27169    0.12202    0.44274    1.000
    N1413    N        0.27180    0.18724    0.37584    1.000
    N1414    N        0.24699    0.24231    0.40325    1.000
    N1415    N        0.26790    0.25537    0.48088    1.000
    N1416    N        0.22965    0.20144    0.46110    1.000
    Si1417   Si       0.27094    0.21176    0.47232    1.000
    N1418    N        0.24306    0.02927    0.55377    1.000
    N1419    N        0.25826    0.08974    0.56835    1.000
    Si1420   Si       0.25317    0.12592    0.59050    1.000
    Si1421   Si       0.28018    0.04890    0.57050    1.000
    Si1422   Si       0.22804    0.07226    0.53679    1.000
    N1423    N        0.24771    0.07601    0.49866    1.000
    N1424    N        0.27366    0.13730    0.51205    1.000
    N1425    N        0.25886    0.16586    0.57344    1.000
    N1426    N        0.24914    0.23757    0.59641    1.000
    Si1427   Si       0.25030    0.16895    0.53144    1.000
    N1428    N        0.27533    0.19997    0.51384    1.000
    Si1429   Si       0.27526    0.19984    0.59492    1.000
    N1430    N        0.27694    0.07892    0.73547    1.000
    N1431    N        0.25105    0.04247    0.67140    1.000
    Si1432   Si       0.27324    0.01972    0.63982    1.000
    N1433    N        0.28019    0.12459    0.62626    1.000
    Si1434   Si       0.28295    0.05760    0.69897    1.000
    N1435    N        0.25828    0.24119    0.68040    1.000
    N1436    N        0.24313    0.18647    0.74183    1.000
    Si1437   Si       0.24455    0.23127    0.64106    1.000
    Si1438   Si       0.28016    0.16142    0.64987    1.000
    N1439    N        0.24515    0.18668    0.63984    1.000
    Si1440   Si       0.24153    0.15198    0.71475    1.000
    N1441    N        0.27970    0.15324    0.69340    1.000
    Si1442   Si       0.22361    0.25863    0.70024    1.000
    Si1443   Si       0.24328    0.10766    0.82058    1.000
    N1444    N        0.22945    0.07875    0.78992    1.000
    Si1445   Si       0.23529    0.08117    0.74748    1.000
    N1446    N        0.22844    0.10276    0.86113    1.000
    N1447    N        0.22550    0.03392    0.84695    1.000
    Si1448   Si       0.23967    0.17982    0.82635    1.000
    N1449    N        0.26451    0.16716    0.85895    1.000
    N1450    N        0.26267    0.20946    0.80397    1.000
    Si1451   Si       0.27009    0.24499    0.82386    1.000
    Si1452   Si       0.27634    0.20172    0.76266    1.000
    N1453    N        0.22806    0.14538    0.80377    1.000
    Si1454   Si       0.23227    0.06208    0.87732    1.000
    N1455    N        0.27248    0.05257    0.88805    1.000
    Si1456   Si       0.25918    0.13792    0.99124    1.000
    Si1457   Si       0.25566    0.14235    0.89514    1.000
    Si1458   Si       0.24675    0.20158    0.94002    1.000
    N1459    N        0.27242    0.16846    0.93016    1.000
    N1460    N        0.27048    0.22195    0.97220    1.000
    N1461    N        0.25055    0.23026    0.90475    1.000
    N1462    N        0.22390    0.16161    0.97738    1.000
    N1463    N        0.24600    0.34866    0.03576    1.000
    N1464    N        0.22558    0.27632    0.01003    1.000
    Si1465   Si       0.25592    0.41847    0.00524    1.000
    Si1466   Si       0.24570    0.45539    0.06728    1.000
    N1467    N        0.25263    0.49654    0.04841    1.000
    Si1468   Si       0.25475    0.49880    0.00540    1.000
    N1469    N        0.23084    0.42481    0.04082    1.000
    N1470    N        0.24244    0.30783    0.12897    1.000
    N1471    N        0.25951    0.32449    0.19757    1.000
    Si1472   Si       0.26235    0.28138    0.20679    1.000
    Si1473   Si       0.27319    0.32324    0.15704    1.000
    Si1474   Si       0.23765    0.36061    0.20567    1.000
    Si1475   Si       0.24610    0.26224    0.12725    1.000
    N1476    N        0.26989    0.48430    0.13884    1.000
    N1477    N        0.26719    0.39567    0.20452    1.000
    Si1478   Si       0.22964    0.46390    0.14140    1.000
    Si1479   Si       0.27899    0.40266    0.16285    1.000
    Si1480   Si       0.26681    0.43137    0.23097    1.000
    Si1481   Si       0.27847    0.49150    0.18260    1.000
    N1482    N        0.25290    0.46618    0.20586    1.000
    N1483    N        0.24372    0.42342    0.14567    1.000
    N1484    N        0.23936    0.31775    0.29135    1.000
    N1485    N        0.24691    0.28614    0.35020    1.000
    N1486    N        0.26671    0.37158    0.31995    1.000
    Si1487   Si       0.23283    0.37355    0.35127    1.000
    Si1488   Si       0.27832    0.33238    0.29886    1.000
    Si1489   Si       0.28179    0.26518    0.33590    1.000
    Si1490   Si       0.25000    0.41271    0.30273    1.000
    N1491    N        0.23540    0.42487    0.26445    1.000
    N1492    N        0.27555    0.44515    0.31846    1.000
    N1493    N        0.26457    0.31081    0.41321    1.000
    Si1494   Si       0.23807    0.28355    0.39169    1.000
    N1495    N        0.26229    0.36908    0.48917    1.000
    N1496    N        0.23709    0.38069    0.39461    1.000
    Si1497   Si       0.22853    0.27087    0.49538    1.000
    Si1498   Si       0.27587    0.39387    0.40660    1.000
    N1499    N        0.22950    0.46753    0.45664    1.000
    N1500    N        0.25239    0.46215    0.39003    1.000
    Si1501   Si       0.26477    0.45834    0.43176    1.000
    N1502    N        0.25690    0.29131    0.56779    1.000
    N1503    N        0.25356    0.36788    0.55556    1.000
    Si1504   Si       0.26069    0.32639    0.54103    1.000
    N1505    N        0.23617    0.31095    0.50814    1.000
    Si1506   Si       0.26884    0.37948    0.59364    1.000
    Si1507   Si       0.22370    0.26313    0.57042    1.000
    Si1508   Si       0.23003    0.43497    0.61251    1.000
    N1509    N        0.24298    0.45254    0.57450    1.000
    Si1510   Si       0.25776    0.39854    0.52232    1.000
    N1511    N        0.23504    0.39295    0.61497    1.000
    N1512    N        0.22633    0.42861    0.51462    1.000
    Si1513   Si       0.27047    0.31968    0.63323    1.000
    N1514    N        0.23506    0.27046    0.74034    1.000
    N1515    N        0.26851    0.33335    0.67561    1.000
    N1516    N        0.23834    0.33914    0.72852    1.000
    N1517    N        0.22769    0.32108    0.62462    1.000
    Si1518   Si       0.22536    0.33493    0.68848    1.000
    Si1519   Si       0.25225    0.48044    0.72122    1.000
    N1520    N        0.24967    0.45712    0.64706    1.000
    N1521    N        0.25944    0.33529    0.85039    1.000
    Si1522   Si       0.27621    0.27650    0.75398    1.000
    Si1523   Si       0.23021    0.30796    0.83337    1.000
    N1524    N        0.25104    0.38295    0.77612    1.000
    N1525    N        0.22971    0.26174    0.83208    1.000
    N1526    N        0.28152    0.27616    0.79786    1.000
    Si1527   Si       0.22151    0.35253    0.76646    1.000
    Si1528   Si       0.23430    0.42467    0.77203    1.000
    Si1529   Si       0.24437    0.41111    0.85244    1.000
    N1530    N        0.23742    0.49483    0.80651    1.000
    N1531    N        0.24506    0.45174    0.86781    1.000
    N1532    N        0.26162    0.44645    0.74460    1.000
    N1533    N        0.22815    0.42616    0.81474    1.000
    Si1534   Si       0.22874    0.34542    0.88089    1.000
    Si1535   Si       0.23574    0.34628    0.99259    1.000
    N1536    N        0.26957    0.32604    0.97563    1.000
    N1537    N        0.24575    0.35210    0.91976    1.000
    Si1538   Si       0.26009    0.31210    0.93378    1.000
    N1539    N        0.22490    0.28544    0.93632    1.000
    N1540    N        0.23412    0.38944    0.97881    1.000
    Si1541   Si       0.23184    0.46060    0.90885    1.000
    N1542    N        0.27520    0.46928    0.91711    1.000
    Si1543   Si       0.25127    0.39069    0.93878    1.000
    N1544    N        0.26075    0.45800    0.98886    1.000
    N1545    N        0.25602    0.56302    0.04483    1.000
    N1546    N        0.23443    0.54401    0.10892    1.000
    Si1547   Si       0.24076    0.60353    0.04389    1.000
    N1548    N        0.26811    0.62263    0.01408    1.000
    Si1549   Si       0.23533    0.53194    0.06622    1.000
    Si1550   Si       0.24875    0.69409    0.02032    1.000
    N1551    N        0.24134    0.68122    0.06187    1.000
    N1552    N        0.23871    0.73701    0.02082    1.000
    Si1553   Si       0.27073    0.74384    0.11141    1.000
    Si1554   Si       0.27606    0.67553    0.08616    1.000
    N1555    N        0.22877    0.73848    0.09816    1.000
    N1556    N        0.25715    0.65606    0.12202    1.000
    Si1557   Si       0.23620    0.55127    0.21371    1.000
    Si1558   Si       0.26372    0.52923    0.13793    1.000
    N1559    N        0.25538    0.52889    0.18072    1.000
    N1560    N        0.27155    0.56935    0.23794    1.000
    Si1561   Si       0.23523    0.73815    0.17901    1.000
    Si1562   Si       0.27043    0.67489    0.21744    1.000
    N1563    N        0.25558    0.63260    0.21612    1.000
    N1564    N        0.23678    0.70457    0.20559    1.000
    N1565    N        0.27258    0.73446    0.15460    1.000
    N1566    N        0.24005    0.57392    0.36446    1.000
    N1567    N        0.27288    0.55536    0.31210    1.000
    Si1568   Si       0.23307    0.54564    0.32789    1.000
    Si1569   Si       0.28552    0.57043    0.35286    1.000
    Si1570   Si       0.24177    0.63981    0.29303    1.000
    N1571    N        0.24398    0.63943    0.33507    1.000
    Si1572   Si       0.26730    0.67152    0.35476    1.000
    N1573    N        0.24997    0.73837    0.26146    1.000
    Si1574   Si       0.25051    0.71517    0.29883    1.000
    N1575    N        0.23347    0.67919    0.27676    1.000
    N1576    N        0.28213    0.69594    0.32271    1.000
    N1577    N        0.23373    0.52247    0.41891    1.000
    Si1578   Si       0.23295    0.56539    0.40609    1.000
    N1579    N        0.25644    0.59376    0.42968    1.000
    N1580    N        0.24969    0.52750    0.49097    1.000
    Si1581   Si       0.22925    0.62630    0.43501    1.000
    Si1582   Si       0.26377    0.73625    0.38104    1.000
    N1583    N        0.24168    0.67123    0.43838    1.000
    Si1584   Si       0.23504    0.68284    0.47918    1.000
    N1585    N        0.24416    0.69740    0.37791    1.000
    Si1586   Si       0.24957    0.55331    0.52562    1.000
    N1587    N        0.24634    0.57338    0.61048    1.000
    N1588    N        0.24072    0.62450    0.56229    1.000
    N1589    N        0.27353    0.53439    0.55771    1.000
    N1590    N        0.27564    0.58771    0.51807    1.000
    Si1591   Si       0.28302    0.61306    0.55496    1.000
    N1592    N        0.24450    0.69517    0.56149    1.000
    Si1593   Si       0.27483    0.71083    0.53279    1.000
    N1594    N        0.26690    0.74697    0.50876    1.000
    N1595    N        0.27223    0.67839    0.50319    1.000
    Si1596   Si       0.25867    0.58800    0.65003    1.000
    Si1597   Si       0.24869    0.55156    0.72370    1.000
    N1598    N        0.26668    0.55786    0.68265    1.000
    N1599    N        0.25796    0.51585    0.74545    1.000
    N1600    N        0.22723    0.61350    0.66834    1.000
    N1601    N        0.27066    0.58149    0.74515    1.000
    Si1602   Si       0.26966    0.71666    0.66174    1.000
    N1603    N        0.25103    0.73695    0.69494    1.000
    N1604    N        0.26775    0.67365    0.66958    1.000
    N1605    N        0.24552    0.72894    0.62906    1.000
    Si1606   Si       0.22718    0.65759    0.66776    1.000
    Si1607   Si       0.27020    0.51200    0.78658    1.000
    Si1608   Si       0.26313    0.62523    0.74767    1.000
    N1609    N        0.28373    0.72682    0.82747    1.000
    N1610    N        0.26474    0.64090    0.78773    1.000
    N1611    N        0.23416    0.67410    0.84525    1.000
    Si1612   Si       0.24399    0.71669    0.84143    1.000
    N1613    N        0.26123    0.74492    0.76322    1.000
    Si1614   Si       0.22791    0.65458    0.80708    1.000
    Si1615   Si       0.22426    0.72567    0.77230    1.000
    N1616    N        0.27424    0.56937    0.91353    1.000
    N1617    N        0.23671    0.61553    0.94820    1.000
    Si1618   Si       0.27415    0.60930    0.92808    1.000
    Si1619   Si       0.23276    0.63195    0.98786    1.000
    Si1620   Si       0.23095    0.65687    0.88837    1.000
    N1621    N        0.27175    0.64450    0.89817    1.000
    N1622    N        0.25206    0.72106    0.94770    1.000
    N1623    N        0.22620    0.67459    0.98874    1.000
    N1624    N        0.23647    0.72939    0.88046    1.000
    Si1625   Si       0.26025    0.74693    0.91233    1.000
    N1626    N        0.25234    0.80194    0.02082    1.000
    N1627    N        0.25757    0.84826    0.10902    1.000
    N1628    N        0.27477    0.86718    0.03327    1.000
    Si1629   Si       0.27126    0.76462    0.01829    1.000
    Si1630   Si       0.27765    0.83239    0.00696    1.000
    Si1631   Si       0.23561    0.88690    0.03029    1.000
    N1632    N        0.27129    0.99359    0.08137    1.000
    N1633    N        0.25450    0.92405    0.11091    1.000
    Si1634   Si       0.27349    0.94014    0.00236    1.000
    Si1635   Si       0.27788    0.94864    0.08224    1.000
    Si1636   Si       0.27599    0.88542    0.11811    1.000
    N1637    N        0.26197    0.98166    0.99551    1.000
    N1638    N        0.28791    0.93116    0.04347    1.000
    N1639    N        0.24023    0.91249    0.99505    1.000
    N1640    N        0.23448    0.84228    0.19767    1.000
    Si1641   Si       0.27083    0.81468    0.13199    1.000
    N1642    N        0.24580    0.77357    0.20305    1.000
    Si1643   Si       0.27580    0.85802    0.18958    1.000
    N1644    N        0.22827    0.80393    0.14194    1.000
    Si1645   Si       0.27514    0.76170    0.23468    1.000
    N1646    N        0.24776    0.96965    0.23036    1.000
    Si1647   Si       0.25866    0.93530    0.15481    1.000
    N1648    N        0.23623    0.90228    0.22827    1.000
    N1649    N        0.27627    0.89242    0.16131    1.000
    Si1650   Si       0.27544    0.90488    0.24636    1.000
    Si1651   Si       0.27059    0.84529    0.33078    1.000
    Si1652   Si       0.24860    0.77511    0.33989    1.000
    N1653    N        0.24142    0.81179    0.32213    1.000
    Si1654   Si       0.27732    0.83491    0.26465    1.000
    N1655    N        0.23256    0.84155    0.26562    1.000
    N1656    N        0.24662    0.88000    0.34313    1.000
    N1657    N        0.26055    0.94865    0.35343    1.000
    N1658    N        0.27312    0.98970    0.29971    1.000
    Si1659   Si       0.26253    0.00296    0.25541    1.000
    N1660    N        0.27818    0.91755    0.28717    1.000
    Si1661   Si       0.25977    0.90899    0.37071    1.000
    Si1662   Si       0.28046    0.95099    0.31644    1.000
    N1663    N        0.23701    0.78767    0.45245    1.000
    N1664    N        0.23940    0.77214    0.38193    1.000
    Si1665   Si       0.25963    0.82498    0.46301    1.000
    N1666    N        0.25532    0.83979    0.42069    1.000
    Si1667   Si       0.23061    0.80131    0.41176    1.000
    Si1668   Si       0.23176    0.76148    0.48608    1.000
    N1669    N        0.24201    0.84630    0.49598    1.000
    Si1670   Si       0.22630    0.88686    0.48322    1.000
    N1671    N        0.24301    0.92932    0.47125    1.000
    Si1672   Si       0.26243    0.96242    0.49288    1.000
    Si1673   Si       0.23965    0.98154    0.37079    1.000
    N1674    N        0.23332    0.90922    0.40356    1.000
    N1675    N        0.23178    0.97928    0.41415    1.000
    N1676    N        0.24745    0.00411    0.48952    1.000
    Si1677   Si       0.25953    0.81871    0.60634    1.000
    N1678    N        0.25815    0.82546    0.56041    1.000
    Si1679   Si       0.23215    0.89082    0.60769    1.000
    N1680    N        0.25034    0.96029    0.53531    1.000
    N1681    N        0.24219    0.91427    0.57379    1.000
    Si1682   Si       0.27844    0.93889    0.56426    1.000
    N1683    N        0.24467    0.99440    0.61702    1.000
    N1684    N        0.26038    0.86052    0.62052    1.000
    Si1685   Si       0.25631    0.83810    0.72784    1.000
    N1686    N        0.24411    0.79733    0.72755    1.000
    N1687    N        0.23099    0.85861    0.69648    1.000
    Si1688   Si       0.26888    0.76128    0.72338    1.000
    Si1689   Si       0.22973    0.95998    0.63806    1.000
    Si1690   Si       0.25024    0.95957    0.71564    1.000
    N1691    N        0.23006    0.97084    0.67925    1.000
    Si1692   Si       0.24251    0.89726    0.68210    1.000
    N1693    N        0.23562    0.91719    0.64342    1.000
    N1694    N        0.23833    0.91840    0.72088    1.000
    N1695    N        0.24449    0.99267    0.74452    1.000
    N1696    N        0.25804    0.79649    0.81180    1.000
    Si1697   Si       0.25696    0.83992    0.80517    1.000
    N1698    N        0.23636    0.85377    0.76588    1.000
    N1699    N        0.23141    0.85449    0.83696    1.000
    Si1700   Si       0.28101    0.76078    0.79997    1.000
    Si1701   Si       0.24657    0.99655    0.85855    1.000
    N1702    N        0.24930    0.91806    0.78996    1.000
    N1703    N        0.25229    0.91188    0.86462    1.000
    Si1704   Si       0.23375    0.92598    0.82986    1.000
    Si1705   Si       0.23048    0.89600    0.75814    1.000
    N1706    N        0.22492    0.96825    0.83083    1.000
    Si1707   Si       0.25760    0.86792    0.86957    1.000
    N1708    N        0.24390    0.78626    0.91738    1.000
    N1709    N        0.25811    0.84484    0.96898    1.000
    N1710    N        0.23806    0.85047    0.90506    1.000
    Si1711   Si       0.26149    0.82235    0.93158    1.000
    Si1712   Si       0.24214    0.88378    0.95900    1.000
    N1713    N        0.26458    0.91077    0.93405    1.000
    Si1714   Si       0.26595    0.93560    0.89861    1.000
    N1715    N        0.24854    0.97592    0.89563    1.000
    N1716    N        0.30274    0.09458    0.11141    1.000
    N1717    N        0.32396    0.02990    0.11397    1.000
    N1718    N        0.33641    0.09905    0.00847    1.000
    Si1719   Si       0.34017    0.10806    0.09374    1.000
    Si1720   Si       0.29517    0.00907    0.00169    1.000
    Si1721   Si       0.28892    0.15867    0.06071    1.000
    N1722    N        0.32837    0.14431    0.07198    1.000
    N1723    N        0.28853    0.15443    0.01690    1.000
    N1724    N        0.28983    0.24969    0.02971    1.000
    Si1725   Si       0.28975    0.20469    0.11980    1.000
    Si1726   Si       0.32923    0.14362    0.00257    1.000
    N1727    N        0.28788    0.24765    0.12435    1.000
    N1728    N        0.28526    0.19755    0.07686    1.000
    N1729    N        0.28992    0.07625    0.24079    1.000
    Si1730   Si       0.29834    0.05672    0.13389    1.000
    N1731    N        0.31125    0.06090    0.17479    1.000
    Si1732   Si       0.28758    0.04588    0.20703    1.000
    N1733    N        0.31213    0.19829    0.20113    1.000
    Si1734   Si       0.31451    0.15606    0.21211    1.000
    Si1735   Si       0.33934    0.18959    0.16982    1.000
    N1736    N        0.32855    0.18711    0.12738    1.000
    Si1737   Si       0.30599    0.22832    0.23270    1.000
    Si1738   Si       0.31350    0.07380    0.27717    1.000
    N1739    N        0.33543    0.10693    0.29442    1.000
    N1740    N        0.32867    0.01119    0.33620    1.000
    N1741    N        0.29006    0.06074    0.31198    1.000
    N1742    N        0.29376    0.13239    0.33530    1.000
    Si1743   Si       0.31161    0.14204    0.29199    1.000
    N1744    N        0.31235    0.18704    0.29664    1.000
    Si1745   Si       0.30496    0.16066    0.36365    1.000
    N1746    N        0.33470    0.14864    0.24953    1.000
    N1747    N        0.30599    0.24536    0.36724    1.000
    Si1748   Si       0.33440    0.04294    0.44555    1.000
    N1749    N        0.31833    0.03221    0.40691    1.000
    N1750    N        0.30713    0.04492    0.47976    1.000
    N1751    N        0.33203    0.14306    0.46754    1.000
    Si1752   Si       0.30370    0.15071    0.43595    1.000
    Si1753   Si       0.29008    0.22479    0.40389    1.000
    N1754    N        0.29169    0.19331    0.43862    1.000
    N1755    N        0.31311    0.25391    0.43294    1.000
    N1756    N        0.32538    0.14146    0.39894    1.000
    N1757    N        0.31726    0.03756    0.55089    1.000
    Si1758   Si       0.32825    0.06161    0.51626    1.000
    N1759    N        0.33248    0.10351    0.52773    1.000
    N1760    N        0.28816    0.05051    0.61246    1.000
    N1761    N        0.34004    0.09959    0.60531    1.000
    Si1762   Si       0.31755    0.13941    0.50761    1.000
    N1763    N        0.30337    0.22511    0.56992    1.000
    Si1764   Si       0.31347    0.21446    0.52918    1.000
    N1765    N        0.33330    0.17547    0.52721    1.000
    N1766    N        0.33081    0.24603    0.50343    1.000
    Si1767   Si       0.30451    0.08940    0.62902    1.000
    N1768    N        0.30024    0.02185    0.71483    1.000
    N1769    N        0.30732    0.07919    0.67140    1.000
    N1770    N        0.29135    0.23720    0.74006    1.000
    N1771    N        0.32151    0.19984    0.68582    1.000
    N1772    N        0.30500    0.18868    0.62513    1.000
    Si1773   Si       0.31751    0.16595    0.71409    1.000
    Si1774   Si       0.29858    0.23456    0.69749    1.000
    Si1775   Si       0.34058    0.20189    0.64725    1.000
    N1776    N        0.30197    0.03374    0.78025    1.000
    Si1777   Si       0.32310    0.12120    0.81866    1.000
    Si1778   Si       0.31419    0.06932    0.75973    1.000
    N1779    N        0.33215    0.10461    0.78022    1.000
    N1780    N        0.28631    0.10174    0.82974    1.000
    N1781    N        0.32659    0.05732    0.86170    1.000
    Si1782   Si       0.29439    0.08550    0.86863    1.000
    Si1783   Si       0.30411    0.18597    0.85468    1.000
    N1784    N        0.29914    0.23014    0.85478    1.000
    N1785    N        0.31783    0.16461    0.81820    1.000
    N1786    N        0.31311    0.17780    0.75620    1.000
    Si1787   Si       0.33892    0.24625    0.84431    1.000
    Si1788   Si       0.30742    0.02294    0.87837    1.000
    Si1789   Si       0.31052    0.07804    0.97832    1.000
    N1790    N        0.33597    0.06412    0.94646    1.000
    N1791    N        0.28934    0.11700    0.89733    1.000
    N1792    N        0.28854    0.11393    0.96598    1.000
    N1793    N        0.33558    0.17752    0.88208    1.000
    N1794    N        0.32646    0.16782    0.96523    1.000
    Si1795   Si       0.31043    0.20887    0.96165    1.000
    N1796    N        0.33851    0.22723    0.98931    1.000
    Si1797   Si       0.28901    0.24871    0.89673    1.000
    Si1798   Si       0.30472    0.13983    0.93548    1.000
    N1799    N        0.31645    0.22725    0.92203    1.000
    N1800    N        0.31647    0.33599    0.02824    1.000
    Si1801   Si       0.31255    0.35452    0.11208    1.000
    N1802    N        0.32066    0.31320    0.09566    1.000
    N1803    N        0.29853    0.37920    0.07956    1.000
    Si1804   Si       0.34256    0.31516    0.05710    1.000
    Si1805   Si       0.31888    0.27890    0.12318    1.000
    Si1806   Si       0.28567    0.36182    0.04242    1.000
    Si1807   Si       0.32769    0.26302    0.01266    1.000
    Si1808   Si       0.30944    0.41712    0.05887    1.000
    N1809    N        0.33212    0.48293    0.10793    1.000
    N1810    N        0.29449    0.40120    0.02000    1.000
    Si1811   Si       0.29918    0.45818    0.11981    1.000
    N1812    N        0.28607    0.44361    0.08096    1.000
    N1813    N        0.31043    0.30091    0.16048    1.000
    N1814    N        0.30176    0.27076    0.22123    1.000
    Si1815   Si       0.33073    0.29699    0.20019    1.000
    N1816    N        0.28467    0.36249    0.14555    1.000
    N1817    N        0.31700    0.49536    0.20077    1.000
    N1818    N        0.31227    0.42534    0.14576    1.000
    N1819    N        0.30274    0.29393    0.30995    1.000
    N1820    N        0.30433    0.34686    0.26897    1.000
    N1821    N        0.32616    0.34540    0.34026    1.000
    Si1822   Si       0.34152    0.31420    0.30977    1.000
    Si1823   Si       0.34079    0.35176    0.24879    1.000
    Si1824   Si       0.30655    0.38337    0.33911    1.000
    N1825    N        0.33241    0.40845    0.31765    1.000
    Si1826   Si       0.31332    0.44404    0.29433    1.000
    N1827    N        0.30448    0.43523    0.25240    1.000
    N1828    N        0.31493    0.48148    0.36876    1.000
    Si1829   Si       0.28266    0.45121    0.36049    1.000
    N1830    N        0.30594    0.31260    0.46526    1.000
    Si1831   Si       0.30072    0.34988    0.49154    1.000
    Si1832   Si       0.30820    0.27138    0.47304    1.000
    N1833    N        0.30793    0.36758    0.42401    1.000
    Si1834   Si       0.30189    0.32429    0.42487    1.000
    N1835    N        0.33694    0.31058    0.40224    1.000
    N1836    N        0.32684    0.38389    0.48759    1.000
    N1837    N        0.29307    0.40841    0.37065    1.000
    Si1838   Si       0.32333    0.40145    0.44801    1.000
    N1839    N        0.29275    0.49218    0.43891    1.000
    Si1840   Si       0.31172    0.50901    0.40483    1.000
    N1841    N        0.28399    0.42225    0.44039    1.000
    N1842    N        0.30440    0.32865    0.53106    1.000
    N1843    N        0.32755    0.28035    0.57543    1.000
    N1844    N        0.29341    0.34773    0.61170    1.000
    Si1845   Si       0.28797    0.26404    0.58413    1.000
    Si1846   Si       0.33923    0.31565    0.55159    1.000
    Si1847   Si       0.33640    0.35071    0.61689    1.000
    N1848    N        0.29274    0.42220    0.53284    1.000
    N1849    N        0.29536    0.41368    0.59894    1.000
    N1850    N        0.30925    0.47752    0.57674    1.000
    Si1851   Si       0.32921    0.49932    0.60891    1.000
    Si1852   Si       0.33473    0.41679    0.51541    1.000
    N1853    N        0.31316    0.49945    0.50812    1.000
    Si1854   Si       0.28511    0.44366    0.56793    1.000
    Si1855   Si       0.30736    0.50924    0.54918    1.000
    N1856    N        0.30035    0.30584    0.73435    1.000
    N1857    N        0.32450    0.26747    0.68702    1.000
    Si1858   Si       0.32944    0.27673    0.64438    1.000
    N1859    N        0.30517    0.37296    0.73326    1.000
    N1860    N        0.29009    0.27968    0.62789    1.000
    Si1861   Si       0.34012    0.28477    0.72499    1.000
    Si1862   Si       0.28055    0.34021    0.71537    1.000
    N1863    N        0.28253    0.49241    0.69090    1.000
    N1864    N        0.33148    0.44560    0.73173    1.000
    Si1865   Si       0.32074    0.41878    0.63347    1.000
    N1866    N        0.32351    0.46401    0.63882    1.000
    N1867    N        0.30105    0.41829    0.67509    1.000
    Si1868   Si       0.32069    0.40864    0.71134    1.000
    Si1869   Si       0.28835    0.45894    0.66474    1.000
    N1870    N        0.31061    0.34661    0.80533    1.000
    Si1871   Si       0.31319    0.30213    0.80967    1.000
    N1872    N        0.32760    0.28893    0.84905    1.000
    Si1873   Si       0.29750    0.35592    0.84661    1.000
    Si1874   Si       0.29547    0.37795    0.77617    1.000
    Si1875   Si       0.30149    0.44789    0.76239    1.000
    N1876    N        0.31107    0.41577    0.79137    1.000
    N1877    N        0.31887    0.45565    0.85612    1.000
    N1878    N        0.30648    0.48615    0.78234    1.000
    Si1879   Si       0.32383    0.41744    0.83502    1.000
    N1880    N        0.28475    0.39629    0.85147    1.000
    Si1881   Si       0.32757    0.30821    0.88945    1.000
    Si1882   Si       0.31045    0.32753    0.98638    1.000
    N1883    N        0.32415    0.35033    0.88302    1.000
    N1884    N        0.32865    0.35694    0.95997    1.000
    N1885    N        0.32994    0.28977    0.97983    1.000
    N1886    N        0.28967    0.29270    0.90857    1.000
    Si1887   Si       0.28350    0.47280    0.87436    1.000
    Si1888   Si       0.31625    0.39267    0.98055    1.000
    Si1889   Si       0.28954    0.45307    0.95442    1.000
    N1890    N        0.28983    0.40893    0.94923    1.000
    N1891    N        0.32717    0.46645    0.96757    1.000
    N1892    N        0.31558    0.53752    0.06769    1.000
    N1893    N        0.32343    0.57710    0.01324    1.000
    Si1894   Si       0.29573    0.54709    0.03088    1.000
    Si1895   Si       0.33294    0.52664    0.10589    1.000
    N1896    N        0.33894    0.59253    0.10631    1.000
    Si1897   Si       0.33583    0.63340    0.09051    1.000
    N1898    N        0.29071    0.69653    0.00640    1.000
    N1899    N        0.30644    0.65550    0.06594    1.000
    Si1900   Si       0.32843    0.73222    0.06825    1.000
    Si1901   Si       0.32223    0.67771    0.03013    1.000
    N1902    N        0.29515    0.71504    0.08917    1.000
    N1903    N        0.33803    0.64890    0.00231    1.000
    Si1904   Si       0.28578    0.60160    0.20770    1.000
    N1905    N        0.30392    0.54393    0.13352    1.000
    N1906    N        0.32359    0.61322    0.22869    1.000
    Si1907   Si       0.32088    0.58144    0.14463    1.000
    N1908    N        0.29265    0.60608    0.16591    1.000
    Si1909   Si       0.29011    0.64729    0.15076    1.000
    N1910    N        0.32689    0.65163    0.12853    1.000
    N1911    N        0.29551    0.67561    0.18144    1.000
    Si1912   Si       0.30533    0.71860    0.17691    1.000
    N1913    N        0.30496    0.73505    0.21670    1.000
    N1914    N        0.30082    0.67841    0.24861    1.000
    N1915    N        0.31215    0.60260    0.34527    1.000
    N1916    N        0.33085    0.57332    0.28528    1.000
    Si1917   Si       0.28671    0.57677    0.27730    1.000
    N1918    N        0.28153    0.62067    0.28220    1.000
    Si1919   Si       0.34430    0.60215    0.31447    1.000
    Si1920   Si       0.31496    0.63976    0.26321    1.000
    Si1921   Si       0.31546    0.72356    0.32665    1.000
    N1922    N        0.32337    0.73439    0.28574    1.000
    Si1923   Si       0.32753    0.71350    0.24808    1.000
    N1924    N        0.28936    0.75469    0.34596    1.000
    N1925    N        0.34411    0.71353    0.35896    1.000
    Si1926   Si       0.32391    0.62956    0.37710    1.000
    Si1927   Si       0.28960    0.51482    0.47493    1.000
    N1928    N        0.30529    0.55534    0.46153    1.000
    Si1929   Si       0.29884    0.57892    0.42545    1.000
    N1930    N        0.32983    0.60633    0.41326    1.000
    N1931    N        0.29973    0.54844    0.39042    1.000
    N1932    N        0.31666    0.61896    0.47583    1.000
    N1933    N        0.29201    0.65592    0.38774    1.000
    Si1934   Si       0.28500    0.68105    0.42302    1.000
    N1935    N        0.33965    0.74906    0.49796    1.000
    N1936    N        0.31582    0.67601    0.45214    1.000
    Si1937   Si       0.33400    0.73513    0.39797    1.000
    Si1938   Si       0.31072    0.65670    0.49770    1.000
    N1939    N        0.29370    0.72223    0.40925    1.000
    N1940    N        0.30829    0.58963    0.58504    1.000
    Si1941   Si       0.32075    0.61772    0.61757    1.000
    N1942    N        0.33684    0.53075    0.57212    1.000
    Si1943   Si       0.28327    0.55416    0.59617    1.000
    Si1944   Si       0.30962    0.58246    0.49395    1.000
    Si1945   Si       0.33731    0.74671    0.54135    1.000
    N1946    N        0.32547    0.66128    0.60632    1.000
    N1947    N        0.31367    0.71289    0.55339    1.000
    Si1948   Si       0.33230    0.67395    0.56438    1.000
    N1949    N        0.30990    0.64328    0.54178    1.000
    N1950    N        0.30003    0.52919    0.62792    1.000
    Si1951   Si       0.29885    0.52953    0.67356    1.000
    N1952    N        0.29435    0.61356    0.65133    1.000
    Si1953   Si       0.33701    0.68846    0.63993    1.000
    N1954    N        0.31246    0.72292    0.65422    1.000
    Si1955   Si       0.33441    0.63114    0.73823    1.000
    N1956    N        0.33878    0.65809    0.67305    1.000
    N1957    N        0.29444    0.64227    0.72521    1.000
    Si1958   Si       0.33217    0.75258    0.68221    1.000
    N1959    N        0.31123    0.75579    0.71913    1.000
    Si1960   Si       0.29725    0.64622    0.68306    1.000
    Si1961   Si       0.30471    0.57193    0.77088    1.000
    N1962    N        0.32466    0.61047    0.77589    1.000
    Si1963   Si       0.30988    0.53979    0.83761    1.000
    N1964    N        0.31074    0.62499    0.84251    1.000
    N1965    N        0.28640    0.54901    0.80310    1.000
    N1966    N        0.33269    0.54711    0.75134    1.000
    N1967    N        0.32401    0.56377    0.87086    1.000
    Si1968   Si       0.34177    0.51294    0.77779    1.000
    Si1969   Si       0.30540    0.63993    0.80264    1.000
    N1970    N        0.32699    0.67796    0.80096    1.000
    Si1971   Si       0.32237    0.70870    0.83171    1.000
    N1972    N        0.28865    0.51395    0.86577    1.000
    Si1973   Si       0.30108    0.53994    0.89960    1.000
    N1974    N        0.32557    0.52360    0.93219    1.000
    N1975    N        0.30592    0.62072    0.95598    1.000
    Si1976   Si       0.32780    0.51068    0.97502    1.000
    Si1977   Si       0.30755    0.61590    0.99940    1.000
    N1978    N        0.29241    0.51875    0.99835    1.000
    Si1979   Si       0.32949    0.71625    0.90767    1.000
    N1980    N        0.31757    0.69371    0.87329    1.000
    Si1981   Si       0.30898    0.65188    0.87803    1.000
    Si1982   Si       0.33443    0.65359    0.95451    1.000
    N1983    N        0.31664    0.69305    0.94384    1.000
    Si1984   Si       0.29035    0.71781    0.96780    1.000
    N1985    N        0.30376    0.75002    0.91259    1.000
    Si1986   Si       0.33206    0.78786    0.10282    1.000
    N1987    N        0.31997    0.82744    0.00645    1.000
    N1988    N        0.30731    0.76595    0.04513    1.000
    Si1989   Si       0.33697    0.79432    0.03368    1.000
    N1990    N        0.29027    0.78323    0.10982    1.000
    N1991    N        0.31017    0.88637    0.09156    1.000
    Si1992   Si       0.30879    0.89291    0.04834    1.000
    N1993    N        0.31677    0.95656    0.10264    1.000
    Si1994   Si       0.31636    0.99816    0.08115    1.000
    N1995    N        0.31828    0.00434    0.03665    1.000
    N1996    N        0.29388    0.82780    0.16433    1.000
    N1997    N        0.29288    0.86354    0.22996    1.000
    Si1998   Si       0.33762    0.85824    0.22940    1.000
    Si1999   Si       0.33753    0.82213    0.16713    1.000
    N2000    N        0.30080    0.00693    0.22822    1.000
    N2001    N        0.29181    0.96208    0.16680    1.000
    N2002    N        0.30055    0.93053    0.22208    1.000
    Si2003   Si       0.28647    0.96881    0.20899    1.000
    Si2004   Si       0.32917    0.95316    0.14509    1.000
    Si2005   Si       0.34490    0.00594    0.23859    1.000
    Si2006   Si       0.32851    0.77900    0.28017    1.000
    Si2007   Si       0.31614    0.78872    0.35469    1.000
    N2008    N        0.33630    0.79872    0.31796    1.000
    N2009    N        0.29261    0.79447    0.25775    1.000
    N2010    N        0.29602    0.85709    0.29819    1.000
    N2011    N        0.29307    0.82631    0.36275    1.000
    Si2012   Si       0.31780    0.89993    0.30232    1.000
    N2013    N        0.32200    0.93725    0.33011    1.000
    N2014    N        0.32835    0.83981    0.42023    1.000
    Si2015   Si       0.33141    0.82862    0.46205    1.000
    N2016    N        0.29683    0.80942    0.47943    1.000
    Si2017   Si       0.29423    0.85005    0.39636    1.000
    N2018    N        0.33718    0.77797    0.38883    1.000
    N2019    N        0.32452    0.96412    0.39773    1.000
    N2020    N        0.30448    0.96065    0.47769    1.000
    N2021    N        0.29836    0.89252    0.38078    1.000
    Si2022   Si       0.33646    0.00331    0.37887    1.000
    Si2023   Si       0.32597    0.92527    0.37340    1.000
    Si2024   Si       0.33056    0.96246    0.44242    1.000
    N2025    N        0.31181    0.78108    0.54415    1.000
    N2026    N        0.30135    0.80635    0.60615    1.000
    Si2027   Si       0.30343    0.81900    0.56368    1.000
    N2028    N        0.32916    0.85331    0.55560    1.000
    Si2029   Si       0.30138    0.77369    0.50326    1.000
    N2030    N        0.30050    0.90884    0.60153    1.000
    Si2031   Si       0.32479    0.89354    0.56914    1.000
    N2032    N        0.30899    0.91855    0.53761    1.000
    N2033    N        0.30384    0.97029    0.58104    1.000
    Si2034   Si       0.33168    0.94324    0.50958    1.000
    Si2035   Si       0.33193    0.99912    0.56078    1.000
    Si2036   Si       0.33195    0.97091    0.61746    1.000
    N2037    N        0.33052    0.85786    0.64284    1.000
    N2038    N        0.30141    0.83540    0.73170    1.000
    Si2039   Si       0.33093    0.81513    0.63578    1.000
    N2040    N        0.33166    0.79676    0.67316    1.000
    Si2041   Si       0.34056    0.81998    0.70991    1.000
    Si2042   Si       0.29512    0.88353    0.63647    1.000
    Si2043   Si       0.30471    0.91535    0.71149    1.000
    N2044    N        0.29336    0.95581    0.70940    1.000
    Si2045   Si       0.31789    0.98958    0.69041    1.000
    N2046    N        0.28578    0.89714    0.67739    1.000
    N2047    N        0.30908    0.99461    0.64852    1.000
    Si2048   Si       0.31649    0.86276    0.76547    1.000
    N2049    N        0.29818    0.85380    0.80363    1.000
    N2050    N        0.32326    0.76618    0.79046    1.000
    Si2051   Si       0.31779    0.87712    0.83466    1.000
    Si2052   Si       0.33939    0.76206    0.75107    1.000
    N2053    N        0.31663    0.91880    0.82017    1.000
    N2054    N        0.29451    0.96987    0.78031    1.000
    N2055    N        0.29921    0.90014    0.75165    1.000
    Si2056   Si       0.30720    0.00033    0.80843    1.000
    Si2057   Si       0.29043    0.92748    0.78440    1.000
    N2058    N        0.28826    0.99917    0.84666    1.000
    Si2059   Si       0.28491    0.00431    0.75194    1.000
    N2060    N        0.30218    0.86276    0.87434    1.000
    Si2061   Si       0.33852    0.86422    0.98699    1.000
    Si2062   Si       0.32309    0.85066    0.91071    1.000
    Si2063   Si       0.31919    0.77723    0.94402    1.000
    N2064    N        0.30500    0.81614    0.92881    1.000
    N2065    N        0.32581    0.87682    0.94734    1.000
    N2066    N        0.29528    0.75926    0.97856    1.000
    N2067    N        0.33815    0.00332    0.90284    1.000
    N2068    N        0.32445    0.00035    0.96956    1.000
    Si2069   Si       0.30740    0.91631    0.94183    1.000
    N2070    N        0.30916    0.93828    0.90312    1.000
    N2071    N        0.30973    0.93354    0.98078    1.000
    Si2072   Si       0.36658    0.04341    0.10683    1.000
    N2073    N        0.37839    0.03933    0.01759    1.000
    Si2074   Si       0.36873    0.07938    0.03136    1.000
    N2075    N        0.35946    0.07319    0.07510    1.000
    N2076    N        0.37443    0.13103    0.11045    1.000
    N2077    N        0.36351    0.20163    0.06628    1.000
    Si2078   Si       0.37923    0.23160    0.09580    1.000
    Si2079   Si       0.35616    0.17166    0.09728    1.000
    Si2080   Si       0.38913    0.18750    0.03124    1.000
    N2081    N        0.37502    0.15713    0.99904    1.000
    N2082    N        0.39598    0.19671    0.11793    1.000
    N2083    N        0.37225    0.07045    0.14187    1.000
    N2084    N        0.36641    0.02723    0.20377    1.000
    Si2085   Si       0.35467    0.06330    0.18224    1.000
    N2086    N        0.37107    0.09125    0.21276    1.000
    Si2087   Si       0.38236    0.12991    0.19568    1.000
    Si2088   Si       0.40329    0.10324    0.12765    1.000
    Si2089   Si       0.37207    0.23500    0.21928    1.000
    N2090    N        0.39834    0.15451    0.22860    1.000
    N2091    N        0.37481    0.20931    0.18256    1.000
    N2092    N        0.34458    0.14688    0.18084    1.000
    N2093    N        0.37669    0.05508    0.32770    1.000
    Si2094   Si       0.37215    0.09512    0.31630    1.000
    N2095    N        0.37302    0.11890    0.35231    1.000
    N2096    N        0.39523    0.10280    0.27800    1.000
    Si2097   Si       0.35211    0.02398    0.30267    1.000
    Si2098   Si       0.40018    0.02983    0.35292    1.000
    N2099    N        0.34555    0.04778    0.26696    1.000
    Si2100   Si       0.38141    0.07095    0.25090    1.000
    Si2101   Si       0.35328    0.20647    0.29160    1.000
    Si2102   Si       0.37510    0.14108    0.26398    1.000
    N2103    N        0.36592    0.23690    0.32271    1.000
    N2104    N        0.38158    0.17402    0.29360    1.000
    Si2105   Si       0.34720    0.22672    0.36013    1.000
    N2106    N        0.34444    0.22506    0.25234    1.000
    N2107    N        0.34257    0.18420    0.35920    1.000
    N2108    N        0.39366    0.12059    0.48482    1.000
    Si2109   Si       0.36771    0.12323    0.44915    1.000
    N2110    N        0.35395    0.08141    0.43982    1.000
    N2111    N        0.37918    0.00915    0.38540    1.000
    N2112    N        0.37064    0.24793    0.38992    1.000
    Si2113   Si       0.36661    0.15133    0.38114    1.000
    N2114    N        0.38877    0.14560    0.41929    1.000
    N2115    N        0.39870    0.23151    0.49243    1.000
    N2116    N        0.39332    0.09357    0.55030    1.000
    Si2117   Si       0.35537    0.11185    0.56372    1.000
    Si2118   Si       0.39377    0.08283    0.50798    1.000
    N2119    N        0.36764    0.04730    0.50372    1.000
    N2120    N        0.39736    0.04915    0.60621    1.000
    Si2121   Si       0.37164    0.13030    0.62285    1.000
    Si2122   Si       0.36922    0.17982    0.55207    1.000
    N2123    N        0.36737    0.14982    0.58101    1.000
    N2124    N        0.37359    0.22285    0.55891    1.000
    Si2125   Si       0.35816    0.25190    0.58659    1.000
    Si2126   Si       0.39724    0.07416    0.64294    1.000
    N2127    N        0.37304    0.10826    0.66372    1.000
    N2128    N        0.36885    0.04820    0.66599    1.000
    Si2129   Si       0.34719    0.07899    0.68555    1.000
    N2130    N        0.34653    0.06760    0.72923    1.000
    Si2131   Si       0.38955    0.01339    0.68291    1.000
    Si2132   Si       0.38581    0.05342    0.74365    1.000
    N2133    N        0.35627    0.14343    0.71727    1.000
    Si2134   Si       0.38424    0.14468    0.68374    1.000
    N2135    N        0.37288    0.17020    0.64869    1.000
    N2136    N        0.37023    0.25486    0.74255    1.000
    N2137    N        0.35087    0.23980    0.63043    1.000
    Si2138   Si       0.39207    0.25929    0.63675    1.000
    N2139    N        0.39102    0.05417    0.83448    1.000
    N2140    N        0.38919    0.02395    0.77430    1.000
    Si2141   Si       0.36571    0.12278    0.75657    1.000
    N2142    N        0.35288    0.11721    0.85206    1.000
    Si2143   Si       0.36829    0.07488    0.86264    1.000
    Si2144   Si       0.37974    0.01607    0.81516    1.000
    N2145    N        0.39987    0.09274    0.75277    1.000
    N2146    N        0.37755    0.15807    0.78098    1.000
    N2147    N        0.34616    0.22597    0.80405    1.000
    Si2148   Si       0.34181    0.18448    0.78851    1.000
    N2149    N        0.39206    0.02312    0.94776    1.000
    N2150    N        0.38714    0.07857    0.90227    1.000
    Si2151   Si       0.36848    0.09297    0.93907    1.000
    N2152    N        0.34905    0.12887    0.92589    1.000
    Si2153   Si       0.34806    0.02401    0.94104    1.000
    N2154    N        0.39474    0.08457    0.97196    1.000
    N2155    N        0.37685    0.20240    0.93862    1.000
    Si2156   Si       0.35294    0.21191    0.90334    1.000
    N2157    N        0.37007    0.23798    0.87601    1.000
    Si2158   Si       0.37998    0.22791    0.97293    1.000
    Si2159   Si       0.37031    0.16125    0.95287    1.000
    Si2160   Si       0.36294    0.14424    0.88472    1.000
    N2161    N        0.38139    0.32375    0.07213    1.000
    Si2162   Si       0.38160    0.33900    0.11232    1.000
    N2163    N        0.35709    0.27559    0.04145    1.000
    Si2164   Si       0.39744    0.28621    0.05094    1.000
    N2165    N        0.35240    0.37267    0.11756    1.000
    N2166    N        0.35849    0.25848    0.12301    1.000
    Si2167   Si       0.36515    0.46083    0.08984    1.000
    Si2168   Si       0.37848    0.41864    0.02763    1.000
    N2169    N        0.39068    0.48991    0.06783    1.000
    Si2170   Si       0.39258    0.49263    0.02503    1.000
    N2171    N        0.35044    0.43193    0.06091    1.000
    Si2172   Si       0.38425    0.27691    0.15422    1.000
    N2173    N        0.37915    0.32080    0.14955    1.000
    Si2174   Si       0.37644    0.35053    0.18106    1.000
    N2175    N        0.36657    0.27177    0.19755    1.000
    N2176    N        0.34787    0.33623    0.20899    1.000
    Si2177   Si       0.35340    0.41066    0.14109    1.000
    Si2178   Si       0.35968    0.49284    0.20992    1.000
    N2179    N        0.37906    0.44149    0.12750    1.000
    N2180    N        0.37090    0.39349    0.17754    1.000
    N2181    N        0.36707    0.44943    0.21224    1.000
    N2182    N        0.38158    0.50326    0.17417    1.000
    Si2183   Si       0.34791    0.43212    0.24674    1.000
    N2184    N        0.36471    0.51178    0.24747    1.000
    N2185    N        0.37233    0.30335    0.34078    1.000
    N2186    N        0.36538    0.32588    0.27542    1.000
    Si2187   Si       0.39477    0.26905    0.32865    1.000
    Si2188   Si       0.35505    0.33128    0.37004    1.000
    Si2189   Si       0.37057    0.42769    0.31977    1.000
    N2190    N        0.37476    0.44072    0.36188    1.000
    Si2191   Si       0.38005    0.49355    0.28742    1.000
    N2192    N        0.35501    0.45725    0.28586    1.000
    N2193    N        0.36238    0.38984    0.25051    1.000
    N2194    N        0.37019    0.50556    0.33018    1.000
    Si2195   Si       0.36207    0.48664    0.37007    1.000
    N2196    N        0.36979    0.28139    0.45703    1.000
    N2197    N        0.37778    0.36390    0.38277    1.000
    Si2198   Si       0.35021    0.27335    0.41854    1.000
    Si2199   Si       0.36920    0.26473    0.49763    1.000
    N2200    N        0.35694    0.41708    0.42870    1.000
    N2201    N        0.35237    0.44528    0.48634    1.000
    Si2202   Si       0.38375    0.43662    0.45670    1.000
    N2203    N        0.35403    0.50348    0.41136    1.000
    Si2204   Si       0.37460    0.40725    0.39000    1.000
    N2205    N        0.36942    0.29676    0.52633    1.000
    N2206    N        0.35334    0.34762    0.57641    1.000
    Si2207   Si       0.38025    0.37622    0.55768    1.000
    N2208    N        0.39343    0.27446    0.59712    1.000
    N2209    N        0.39682    0.35942    0.52017    1.000
    N2210    N        0.36610    0.41477    0.54545    1.000
    N2211    N        0.38589    0.48326    0.52822    1.000
    Si2212   Si       0.39834    0.44394    0.54439    1.000
    Si2213   Si       0.35463    0.48792    0.49796    1.000
    Si2214   Si       0.34818    0.35622    0.72627    1.000
    N2215    N        0.36127    0.31988    0.70906    1.000
    Si2216   Si       0.38112    0.32153    0.67178    1.000
    N2217    N        0.34780    0.31690    0.64350    1.000
    N2218    N        0.38228    0.47947    0.68757    1.000
    N2219    N        0.37176    0.50120    0.62156    1.000
    N2220    N        0.35154    0.38707    0.63301    1.000
    Si2221   Si       0.37203    0.46318    0.72711    1.000
    N2222    N        0.35931    0.38850    0.69960    1.000
    N2223    N        0.39921    0.43105    0.74032    1.000
    Si2224   Si       0.38383    0.39100    0.66318    1.000
    N2225    N        0.37981    0.33927    0.82933    1.000
    N2226    N        0.36738    0.36522    0.76311    1.000
    Si2227   Si       0.35466    0.34059    0.79492    1.000
    Si2228   Si       0.38384    0.37050    0.86081    1.000
    N2229    N        0.34555    0.29877    0.78321    1.000
    Si2230   Si       0.36468    0.26104    0.78527    1.000
    N2231    N        0.37707    0.49344    0.75959    1.000
    N2232    N        0.36372    0.40369    0.84427    1.000
    N2233    N        0.38041    0.46074    0.81777    1.000
    Si2234   Si       0.35003    0.48273    0.84107    1.000
    N2235    N        0.38481    0.33372    0.98513    1.000
    Si2236   Si       0.36820    0.30088    0.96368    1.000
    N2237    N        0.36186    0.31103    0.91989    1.000
    N2238    N        0.39136    0.36195    0.90330    1.000
    N2239    N        0.39297    0.26624    0.95902    1.000
    Si2240   Si       0.34926    0.36249    0.92141    1.000
    N2241    N        0.35307    0.41248    0.99157    1.000
    N2242    N        0.38324    0.47313    0.93650    1.000
    Si2243   Si       0.36064    0.44199    0.95806    1.000
    N2244    N        0.36126    0.40738    0.92920    1.000
    N2245    N        0.36648    0.50632    0.87357    1.000
    N2246    N        0.38494    0.55996    0.05163    1.000
    Si2247   Si       0.37789    0.57769    0.09137    1.000
    Si2248   Si       0.36461    0.56158    0.01127    1.000
    N2249    N        0.37642    0.53821    0.11491    1.000
    N2250    N        0.36098    0.51946    0.00132    1.000
    N2251    N        0.38664    0.59638    0.00007    1.000
    Si2252   Si       0.37640    0.63295    0.02068    1.000
    N2253    N        0.37090    0.63379    0.06395    1.000
    N2254    N        0.35156    0.70895    0.03951    1.000
    Si2255   Si       0.38336    0.73235    0.01790    1.000
    N2256    N        0.35266    0.74825    0.09817    1.000
    N2257    N        0.38012    0.57605    0.23121    1.000
    Si2258   Si       0.38462    0.54441    0.15812    1.000
    N2259    N        0.35563    0.57755    0.17083    1.000
    Si2260   Si       0.36074    0.60494    0.20482    1.000
    N2261    N        0.34470    0.71429    0.15907    1.000
    N2262    N        0.36960    0.71078    0.23836    1.000
    N2263    N        0.36937    0.64800    0.19700    1.000
    Si2264   Si       0.35568    0.67026    0.15786    1.000
    N2265    N        0.39248    0.66401    0.13301    1.000
    Si2266   Si       0.39109    0.67767    0.21839    1.000
    Si2267   Si       0.36550    0.74799    0.14050    1.000
    N2268    N        0.37426    0.58229    0.34082    1.000
    Si2269   Si       0.35861    0.55363    0.25972    1.000
    Si2270   Si       0.39143    0.54449    0.32897    1.000
    Si2271   Si       0.39361    0.61826    0.35831    1.000
    N2272    N        0.39720    0.54752    0.28594    1.000
    N2273    N        0.35029    0.63822    0.29037    1.000
    N2274    N        0.40843    0.75520    0.34865    1.000
    Si2275   Si       0.37912    0.68684    0.35905    1.000
    N2276    N        0.36222    0.64680    0.36616    1.000
    Si2277   Si       0.39336    0.65861    0.29400    1.000
    N2278    N        0.39406    0.69560    0.31597    1.000
    Si2279   Si       0.39597    0.74404    0.24897    1.000
    N2280    N        0.38111    0.59216    0.46127    1.000
    N2281    N        0.37016    0.52324    0.47504    1.000
    Si2282   Si       0.35066    0.62334    0.44967    1.000
    Si2283   Si       0.37587    0.56344    0.49336    1.000
    Si2284   Si       0.38887    0.50771    0.43649    1.000
    N2285    N        0.39092    0.70948    0.48075    1.000
    Si2286   Si       0.37072    0.74938    0.46554    1.000
    Si2287   Si       0.35818    0.68911    0.45982    1.000
    N2288    N        0.35683    0.72698    0.43246    1.000
    N2289    N        0.37748    0.65597    0.43796    1.000
    N2290    N        0.38247    0.58446    0.57973    1.000
    Si2291   Si       0.34284    0.57242    0.56430    1.000
    N2292    N        0.34303    0.57327    0.52086    1.000
    N2293    N        0.37451    0.68287    0.56055    1.000
    Si2294   Si       0.38658    0.71598    0.58754    1.000
    Si2295   Si       0.39122    0.67520    0.51808    1.000
    N2296    N        0.37535    0.75063    0.56228    1.000
    N2297    N        0.35403    0.66519    0.49985    1.000
    Si2298   Si       0.39521    0.58581    0.62278    1.000
    N2299    N        0.40101    0.56168    0.73123    1.000
    Si2300   Si       0.35868    0.56167    0.71666    1.000
    N2301    N        0.36040    0.60605    0.63827    1.000
    Si2302   Si       0.37226    0.51772    0.66167    1.000
    Si2303   Si       0.36462    0.62530    0.67628    1.000
    N2304    N        0.34803    0.60220    0.70881    1.000
    N2305    N        0.34063    0.53591    0.68450    1.000
    N2306    N        0.36509    0.65974    0.74184    1.000
    N2307    N        0.37561    0.70534    0.62571    1.000
    N2308    N        0.37116    0.73544    0.68966    1.000
    Si2309   Si       0.39625    0.72773    0.72556    1.000
    Si2310   Si       0.39696    0.73035    0.65378    1.000
    N2311    N        0.38379    0.58385    0.85132    1.000
    Si2312   Si       0.38018    0.53809    0.84391    1.000
    N2313    N        0.34763    0.52371    0.81833    1.000
    Si2314   Si       0.34432    0.60021    0.86263    1.000
    N2315    N        0.35776    0.73417    0.83708    1.000
    Si2316   Si       0.36248    0.68858    0.77538    1.000
    N2317    N        0.36697    0.72774    0.75739    1.000
    Si2318   Si       0.39048    0.72509    0.86567    1.000
    N2319    N        0.39889    0.67487    0.79592    1.000
    N2320    N        0.39098    0.54519    0.92397    1.000
    N2321    N        0.34693    0.63120    0.89237    1.000
    Si2322   Si       0.36685    0.51036    0.91744    1.000
    Si2323   Si       0.38767    0.74510    0.94339    1.000
    N2324    N        0.38847    0.71639    0.97561    1.000
    N2325    N        0.37481    0.65907    0.94070    1.000
    Si2326   Si       0.38614    0.65300    0.89816    1.000
    N2327    N        0.36992    0.72832    0.90633    1.000
    Si2328   Si       0.38641    0.83234    0.07906    1.000
    N2329    N        0.36988    0.77382    0.01507    1.000
    N2330    N        0.37571    0.87536    0.08426    1.000
    N2331    N        0.34895    0.81219    0.07145    1.000
    Si2332   Si       0.38353    0.88329    0.04230    1.000
    Si2333   Si       0.34675    0.88400    0.11458    1.000
    N2334    N        0.34467    0.88837    0.02448    1.000
    Si2335   Si       0.38520    0.98064    0.11107    1.000
    N2336    N        0.36286    0.99348    0.07662    1.000
    N2337    N        0.37139    0.96787    0.00734    1.000
    Si2338   Si       0.36110    0.00155    0.03401    1.000
    N2339    N        0.35076    0.82446    0.20746    1.000
    N2340    N        0.35814    0.85476    0.14578    1.000
    Si2341   Si       0.37829    0.81438    0.24050    1.000
    N2342    N        0.34728    0.78799    0.14561    1.000
    N2343    N        0.35891    0.89149    0.21254    1.000
    Si2344   Si       0.37043    0.88972    0.17111    1.000
    Si2345   Si       0.38300    0.98958    0.18922    1.000
    N2346    N        0.34851    0.91553    0.14605    1.000
    N2347    N        0.36495    0.97912    0.15061    1.000
    N2348    N        0.36017    0.96735    0.21742    1.000
    Si2349   Si       0.34498    0.92947    0.23038    1.000
    N2350    N        0.35860    0.84486    0.26553    1.000
    N2351    N        0.36716    0.77683    0.25781    1.000
    Si2352   Si       0.35754    0.83623    0.31238    1.000
    N2353    N        0.39805    0.82733    0.32953    1.000
    N2354    N        0.35929    0.88039    0.31801    1.000
    Si2355   Si       0.37765    0.88581    0.27803    1.000
    Si2356   Si       0.38775    0.90253    0.34213    1.000
    N2357    N        0.39278    0.94070    0.32197    1.000
    Si2358   Si       0.35504    0.95193    0.30400    1.000
    N2359    N        0.35566    0.98666    0.28036    1.000
    N2360    N        0.34558    0.91798    0.27276    1.000
    N2361    N        0.39635    0.81795    0.39645    1.000
    N2362    N        0.36133    0.79522    0.45160    1.000
    Si2363   Si       0.35676    0.80849    0.41083    1.000
    Si2364   Si       0.39631    0.80336    0.47842    1.000
    N2365    N        0.35249    0.85494    0.48644    1.000
    N2366    N        0.39682    0.88295    0.43757    1.000
    Si2367   Si       0.38635    0.92065    0.41690    1.000
    Si2368   Si       0.36757    0.89268    0.47093    1.000
    N2369    N        0.35555    0.00094    0.45227    1.000
    N2370    N        0.35280    0.92542    0.44711    1.000
    N2371    N        0.36731    0.91230    0.37905    1.000
    Si2372   Si       0.38949    0.99920    0.42521    1.000
    Si2373   Si       0.37134    0.00380    0.49616    1.000
    N2374    N        0.40452    0.95784    0.42386    1.000
    N2375    N        0.38383    0.80486    0.52088    1.000
    Si2376   Si       0.36283    0.84181    0.52732    1.000
    N2377    N        0.39937    0.86612    0.53528    1.000
    Si2378   Si       0.40457    0.77748    0.54812    1.000
    N2379    N        0.36588    0.90960    0.57657    1.000
    Si2380   Si       0.39105    0.90753    0.54083    1.000
    N2381    N        0.36006    0.99425    0.59296    1.000
    N2382    N        0.36876    0.91828    0.50549    1.000
    Si2383   Si       0.38354    0.91631    0.61714    1.000
    N2384    N        0.34771    0.98183    0.52451    1.000
    Si2385   Si       0.40044    0.00469    0.60313    1.000
    N2386    N        0.37575    0.82063    0.62827    1.000
    N2387    N        0.36518    0.85257    0.69962    1.000
    Si2388   Si       0.37152    0.85337    0.65660    1.000
    N2389    N        0.36301    0.79586    0.73666    1.000
    Si2390   Si       0.37505    0.88504    0.72719    1.000
    N2391    N        0.39806    0.88433    0.64325    1.000
    N2392    N        0.35456    0.93982    0.64075    1.000
    N2393    N        0.35914    0.98365    0.69379    1.000
    N2394    N        0.34951    0.91519    0.70787    1.000
    Si2395   Si       0.36864    0.94292    0.68322    1.000
    Si2396   Si       0.36775    0.83349    0.85917    1.000
    N2397    N        0.35987    0.86812    0.83352    1.000
    Si2398   Si       0.35499    0.77248    0.81709    1.000
    N2399    N        0.39278    0.78315    0.79689    1.000
    N2400    N        0.35946    0.87146    0.76548    1.000
    N2401    N        0.34433    0.80132    0.84733    1.000
    Si2402   Si       0.38103    0.88635    0.80169    1.000
    Si2403   Si       0.34996    0.94625    0.82337    1.000
    N2404    N        0.37860    0.92786    0.79879    1.000
    N2405    N        0.36752    0.94520    0.86350    1.000
    N2406    N        0.34788    0.98872    0.81704    1.000
    N2407    N        0.37681    0.84401    0.97310    1.000
    Si2408   Si       0.39421    0.85832    0.93440    1.000
    Si2409   Si       0.37901    0.80235    0.98283    1.000
    N2410    N        0.36649    0.84884    0.90163    1.000
    N2411    N        0.36133    0.77772    0.95022    1.000
    N2412    N        0.36048    0.94711    0.93919    1.000
    Si2413   Si       0.34642    0.96106    0.89893    1.000
    Si2414   Si       0.34416    0.96152    0.97708    1.000
    Si2415   Si       0.44251    0.03733    0.10842    1.000
    N2416    N        0.43526    0.07990    0.10982    1.000
    N2417    N        0.40102    0.10624    0.03333    1.000
    Si2418   Si       0.43402    0.13253    0.04459    1.000
    N2419    N        0.44382    0.03094    0.99820    1.000
    N2420    N        0.40367    0.02097    0.11594    1.000
    N2421    N        0.41188    0.25210    0.07659    1.000
    N2422    N        0.41868    0.16826    0.05924    1.000
    Si2423   Si       0.42950    0.17905    0.09802    1.000
    Si2424   Si       0.44110    0.24432    0.00914    1.000
    Si2425   Si       0.45571    0.24052    0.07671    1.000
    N2426    N        0.40775    0.21679    0.00533    1.000
    N2427    N        0.44224    0.14260    0.00319    1.000
    N2428    N        0.44564    0.14209    0.11506    1.000
    N2429    N        0.46209    0.20679    0.10306    1.000
    Si2430   Si       0.44361    0.02083    0.22627    1.000
    N2431    N        0.41024    0.12447    0.16452    1.000
    Si2432   Si       0.42619    0.18723    0.22206    1.000
    Si2433   Si       0.44926    0.14554    0.15882    1.000
    Si2434   Si       0.40980    0.21242    0.15738    1.000
    N2435    N        0.43490    0.18373    0.17817    1.000
    N2436    N        0.41055    0.22613    0.23416    1.000
    N2437    N        0.42037    0.25394    0.15203    1.000
    Si2438   Si       0.43812    0.10257    0.28423    1.000
    N2439    N        0.44849    0.06651    0.30500    1.000
    Si2440   Si       0.43971    0.02784    0.28678    1.000
    N2441    N        0.41446    0.04144    0.25303    1.000
    N2442    N        0.45709    0.10725    0.24437    1.000
    Si2443   Si       0.45920    0.23712    0.33680    1.000
    N2444    N        0.44589    0.14128    0.30765    1.000
    N2445    N        0.43860    0.20975    0.31101    1.000
    Si2446   Si       0.41676    0.17219    0.32193    1.000
    N2447    N        0.41171    0.17427    0.36561    1.000
    N2448    N        0.43439    0.04518    0.37277    1.000
    N2449    N        0.42027    0.02701    0.44031    1.000
    Si2450   Si       0.43708    0.02742    0.48017    1.000
    Si2451   Si       0.45026    0.03051    0.41082    1.000
    Si2452   Si       0.42272    0.17175    0.40744    1.000
    N2453    N        0.41950    0.21259    0.42315    1.000
    N2454    N        0.44408    0.17360    0.47373    1.000
    Si2455   Si       0.43066    0.21491    0.46542    1.000
    Si2456   Si       0.41246    0.24664    0.39609    1.000
    Si2457   Si       0.41752    0.08195    0.58265    1.000
    N2458    N        0.45607    0.06906    0.56960    1.000
    N2459    N        0.41119    0.10872    0.61716    1.000
    N2460    N        0.45503    0.13107    0.52787    1.000
    N2461    N        0.43537    0.06565    0.50306    1.000
    Si2462   Si       0.41115    0.22265    0.53457    1.000
    Si2463   Si       0.42359    0.15054    0.50218    1.000
    N2464    N        0.40714    0.17818    0.53039    1.000
    N2465    N        0.43752    0.25500    0.54320    1.000
    N2466    N        0.43941    0.16772    0.61664    1.000
    N2467    N        0.43617    0.05672    0.65845    1.000
    N2468    N        0.40988    0.02532    0.71893    1.000
    Si2469   Si       0.44364    0.12899    0.64055    1.000
    Si2470   Si       0.44004    0.10634    0.74527    1.000
    Si2471   Si       0.45547    0.01819    0.65370    1.000
    N2472    N        0.42757    0.15018    0.67707    1.000
    N2473    N        0.41351    0.20297    0.70906    1.000
    N2474    N        0.41837    0.22403    0.63715    1.000
    Si2475   Si       0.41521    0.18327    0.64921    1.000
    Si2476   Si       0.40765    0.23481    0.73715    1.000
    Si2477   Si       0.44384    0.17240    0.71324    1.000
    N2478    N        0.43618    0.14926    0.74819    1.000
    Si2479   Si       0.42824    0.03653    0.84779    1.000
    N2480    N        0.45920    0.06304    0.83446    1.000
    N2481    N        0.41816    0.21384    0.77713    1.000
    N2482    N        0.44153    0.15602    0.81467    1.000
    Si2483   Si       0.42930    0.23771    0.81114    1.000
    Si2484   Si       0.43409    0.17555    0.85266    1.000
    N2485    N        0.43421    0.22053    0.85081    1.000
    Si2486   Si       0.41669    0.17071    0.78105    1.000
    N2487    N        0.45856    0.07037    0.94306    1.000
    N2488    N        0.43317    0.03426    0.89055    1.000
    Si2489   Si       0.42923    0.07509    0.91118    1.000
    N2490    N        0.44828    0.10770    0.88846    1.000
    Si2491   Si       0.40521    0.12590    0.98841    1.000
    Si2492   Si       0.40491    0.04482    0.98392    1.000
    N2493    N        0.40294    0.16044    0.87982    1.000
    Si2494   Si       0.41066    0.25213    0.87517    1.000
    N2495    N        0.40686    0.14006    0.94276    1.000
    Si2496   Si       0.43548    0.14491    0.91112    1.000
    N2497    N        0.43878    0.24729    0.90751    1.000
    N2498    N        0.43239    0.28400    0.02482    1.000
    Si2499   Si       0.42673    0.36988    0.06839    1.000
    N2500    N        0.42137    0.35931    0.11398    1.000
    N2501    N        0.45204    0.33463    0.06286    1.000
    N2502    N        0.40345    0.38279    0.03279    1.000
    Si2503   Si       0.46259    0.31463    0.02492    1.000
    N2504    N        0.45252    0.40461    0.07435    1.000
    N2505    N        0.40213    0.45084    0.01239    1.000
    Si2506   Si       0.44182    0.33879    0.22344    1.000
    N2507    N        0.42825    0.29832    0.23315    1.000
    N2508    N        0.41944    0.35242    0.18916    1.000
    Si2509   Si       0.44180    0.35192    0.15125    1.000
    Si2510   Si       0.46008    0.27015    0.14380    1.000
    N2511    N        0.45973    0.31343    0.14273    1.000
    N2512    N        0.42724    0.44336    0.17271    1.000
    N2513    N        0.43000    0.49300    0.12607    1.000
    N2514    N        0.42425    0.41522    0.23333    1.000
    Si2515   Si       0.40075    0.47123    0.14996    1.000
    Si2516   Si       0.39916    0.42119    0.19902    1.000
    N2517    N        0.42520    0.35418    0.26089    1.000
    N2518    N        0.41577    0.27936    0.29101    1.000
    N2519    N        0.42912    0.26296    0.35771    1.000
    Si2520   Si       0.40588    0.31528    0.26832    1.000
    Si2521   Si       0.43058    0.25975    0.25334    1.000
    Si2522   Si       0.40501    0.39197    0.26466    1.000
    N2523    N        0.42334    0.48121    0.28534    1.000
    Si2524   Si       0.43778    0.44173    0.30105    1.000
    N2525    N        0.44331    0.44665    0.34291    1.000
    Si2526   Si       0.45382    0.50524    0.26283    1.000
    N2527    N        0.40605    0.41292    0.30087    1.000
    N2528    N        0.42580    0.29947    0.49147    1.000
    Si2529   Si       0.40787    0.30420    0.45079    1.000
    N2530    N        0.40884    0.34775    0.44475    1.000
    Si2531   Si       0.42071    0.37103    0.48286    1.000
    N2532    N        0.42338    0.28419    0.41652    1.000
    Si2533   Si       0.41523    0.36273    0.40544    1.000
    N2534    N        0.44567    0.33968    0.38608    1.000
    Si2535   Si       0.44853    0.29561    0.38297    1.000
    N2536    N        0.41874    0.40801    0.40151    1.000
    Si2537   Si       0.42128    0.44684    0.37915    1.000
    Si2538   Si       0.43995    0.45741    0.48818    1.000
    N2539    N        0.40804    0.47358    0.45736    1.000
    N2540    N        0.42065    0.41226    0.46423    1.000
    Si2541   Si       0.45099    0.42170    0.43363    1.000
    N2542    N        0.40933    0.48785    0.38887    1.000
    N2543    N        0.43186    0.32079    0.56258    1.000
    Si2544   Si       0.43107    0.28242    0.57874    1.000
    Si2545   Si       0.44695    0.35526    0.58376    1.000
    Si2546   Si       0.40657    0.31798    0.52527    1.000
    Si2547   Si       0.45767    0.27186    0.50757    1.000
    N2548    N        0.41507    0.38488    0.58825    1.000
    N2549    N        0.44837    0.49531    0.51234    1.000
    Si2550   Si       0.42508    0.41959    0.61077    1.000
    N2551    N        0.43631    0.42934    0.52469    1.000
    Si2552   Si       0.40804    0.49143    0.60197    1.000
    N2553    N        0.40741    0.45125    0.58437    1.000
    N2554    N        0.40648    0.28463    0.66956    1.000
    Si2555   Si       0.44340    0.28065    0.69376    1.000
    Si2556   Si       0.45155    0.35132    0.66438    1.000
    N2557    N        0.43372    0.27057    0.73417    1.000
    N2558    N        0.43348    0.37107    0.73514    1.000
    N2559    N        0.40753    0.35467    0.66638    1.000
    Si2560   Si       0.41667    0.46473    0.66894    1.000
    N2561    N        0.44450    0.46729    0.70293    1.000
    Si2562   Si       0.44060    0.44821    0.74367    1.000
    N2563    N        0.43833    0.48800    0.63570    1.000
    N2564    N        0.40913    0.42563    0.65024    1.000
    N2565    N        0.44314    0.32662    0.81713    1.000
    Si2566   Si       0.44447    0.36891    0.81832    1.000
    Si2567   Si       0.40764    0.30689    0.82913    1.000
    N2568    N        0.42514    0.38664    0.85329    1.000
    N2569    N        0.39898    0.26815    0.81262    1.000
    N2570    N        0.43974    0.47275    0.77869    1.000
    N2571    N        0.41915    0.39754    0.79472    1.000
    N2572    N        0.44160    0.44383    0.83808    1.000
    Si2573   Si       0.40171    0.42293    0.82703    1.000
    Si2574   Si       0.40147    0.39049    0.75544    1.000
    Si2575   Si       0.40309    0.48939    0.79482    1.000
    Si2576   Si       0.45178    0.41747    0.87043    1.000
    N2577    N        0.41051    0.29539    0.87200    1.000
    Si2578   Si       0.41374    0.36386    0.99424    1.000
    Si2579   Si       0.43342    0.27166    0.94130    1.000
    N2580    N        0.43747    0.31563    0.93168    1.000
    N2581    N        0.45390    0.34363    0.99200    1.000
    Si2582   Si       0.40311    0.32029    0.90496    1.000
    N2583    N        0.42554    0.43015    0.90680    1.000
    N2584    N        0.41786    0.39842    0.96650    1.000
    Si2585   Si       0.42382    0.46875    0.92225    1.000
    N2586    N        0.44347    0.46726    0.96037    1.000
    Si2587   Si       0.45026    0.50428    0.98122    1.000
    Si2588   Si       0.43329    0.43421    0.98764    1.000
    N2589    N        0.43776    0.50004    0.89582    1.000
    Si2590   Si       0.40456    0.39822    0.92471    1.000
    N2591    N        0.44086    0.54390    0.07947    1.000
    Si2592   Si       0.42699    0.55600    0.04005    1.000
    N2593    N        0.44808    0.59063    0.02681    1.000
    N2594    N        0.40902    0.60151    0.10665    1.000
    N2595    N        0.42732    0.51968    0.01340    1.000
    Si2596   Si       0.41123    0.51780    0.09645    1.000
    Si2597   Si       0.46172    0.74833    0.04583    1.000
    N2598    N        0.42549    0.72484    0.03297    1.000
    Si2599   Si       0.43636    0.68110    0.03228    1.000
    N2600    N        0.42746    0.66892    0.07295    1.000
    N2601    N        0.41280    0.65406    0.00577    1.000
    Si2602   Si       0.40221    0.64394    0.09534    1.000
    N2603    N        0.44003    0.53243    0.23156    1.000
    Si2604   Si       0.43832    0.59154    0.13817    1.000
    N2605    N        0.42329    0.55846    0.16464    1.000
    N2606    N        0.44450    0.62718    0.16227    1.000
    Si2607   Si       0.45562    0.54604    0.19222    1.000
    N2608    N        0.45434    0.69385    0.13317    1.000
    N2609    N        0.40632    0.74948    0.14727    1.000
    Si2610   Si       0.42854    0.73379    0.18091    1.000
    Si2611   Si       0.42774    0.66746    0.15617    1.000
    N2612    N        0.41773    0.69260    0.18816    1.000
    N2613    N        0.41724    0.75791    0.21409    1.000
    N2614    N        0.42858    0.53812    0.34912    1.000
    Si2615   Si       0.41802    0.56318    0.25075    1.000
    N2616    N        0.43958    0.59949    0.24979    1.000
    N2617    N        0.41620    0.63393    0.32284    1.000
    Si2618   Si       0.46091    0.63277    0.32607    1.000
    Si2619   Si       0.44848    0.64149    0.25106    1.000
    Si2620   Si       0.42391    0.72816    0.31913    1.000
    N2621    N        0.43081    0.74205    0.27805    1.000
    N2622    N        0.40971    0.66005    0.25229    1.000
    N2623    N        0.46036    0.71471    0.33728    1.000
    Si2624   Si       0.45792    0.68804    0.37206    1.000
    N2625    N        0.41167    0.61362    0.39822    1.000
    N2626    N        0.40986    0.54325    0.42122    1.000
    Si2627   Si       0.43354    0.52410    0.38976    1.000
    Si2628   Si       0.41374    0.58491    0.43207    1.000
    N2629    N        0.45473    0.58846    0.44732    1.000
    Si2630   Si       0.41403    0.65437    0.41639    1.000
    N2631    N        0.41643    0.68384    0.38259    1.000
    N2632    N        0.45010    0.66012    0.44142    1.000
    Si2633   Si       0.42769    0.72798    0.49150    1.000
    N2634    N        0.44976    0.58938    0.56965    1.000
    Si2635   Si       0.41111    0.59347    0.54754    1.000
    N2636    N        0.42465    0.52160    0.57314    1.000
    Si2637   Si       0.41572    0.51728    0.53143    1.000
    N2638    N        0.40825    0.55759    0.52029    1.000
    Si2639   Si       0.45870    0.54937    0.57941    1.000
    N2640    N        0.40852    0.63147    0.52829    1.000
    Si2641   Si       0.44953    0.65031    0.52664    1.000
    N2642    N        0.43127    0.71894    0.58704    1.000
    N2643    N        0.43306    0.69056    0.52071    1.000
    Si2644   Si       0.45036    0.71886    0.54848    1.000
    N2645    N        0.43787    0.75637    0.52719    1.000
    Si2646   Si       0.45197    0.73610    0.62134    1.000
    Si2647   Si       0.43633    0.58533    0.73743    1.000
    N2648    N        0.42977    0.61143    0.63076    1.000
    Si2649   Si       0.44399    0.61720    0.67311    1.000
    Si2650   Si       0.44060    0.52989    0.65149    1.000
    N2651    N        0.40195    0.54995    0.65207    1.000
    N2652    N        0.45830    0.58476    0.69942    1.000
    N2653    N        0.40479    0.63088    0.69084    1.000
    N2654    N        0.42093    0.69274    0.72076    1.000
    Si2655   Si       0.45311    0.69385    0.69349    1.000
    Si2656   Si       0.40690    0.65166    0.73010    1.000
    N2657    N        0.43725    0.71211    0.65686    1.000
    Si2658   Si       0.42659    0.59867    0.86093    1.000
    N2659    N        0.43775    0.62570    0.82815    1.000
    N2660    N        0.41564    0.52242    0.82486    1.000
    Si2661   Si       0.44549    0.52134    0.85584    1.000
    N2662    N        0.43044    0.62577    0.75508    1.000
    Si2663   Si       0.45534    0.61739    0.79095    1.000
    Si2664   Si       0.42202    0.66665    0.82924    1.000
    N2665    N        0.42407    0.74781    0.85266    1.000
    N2666    N        0.45841    0.69196    0.82434    1.000
    N2667    N        0.39944    0.68259    0.86452    1.000
    N2668    N        0.44112    0.56118    0.87510    1.000
    N2669    N        0.45256    0.61073    0.95985    1.000
    N2670    N        0.42148    0.62602    0.89604    1.000
    Si2671   Si       0.43289    0.54128    0.91301    1.000
    N2672    N        0.45372    0.53718    0.95113    1.000
    Si2673   Si       0.42668    0.61186    0.99449    1.000
    Si2674   Si       0.40371    0.67701    0.96829    1.000
    Si2675   Si       0.45472    0.71945    0.93164    1.000
    N2676    N        0.43665    0.67973    0.93961    1.000
    N2677    N        0.43001    0.75533    0.93384    1.000
    Si2678   Si       0.44843    0.63883    0.92774    1.000
    Si2679   Si       0.43818    0.82174    0.02080    1.000
    N2680    N        0.41602    0.81566    0.10471    1.000
    N2681    N        0.45256    0.79124    0.05079    1.000
    Si2682   Si       0.45878    0.80866    0.09045    1.000
    N2683    N        0.40309    0.84130    0.03894    1.000
    N2684    N        0.45104    0.90044    0.09923    1.000
    N2685    N        0.43337    0.97129    0.03913    1.000
    Si2686   Si       0.44119    0.93609    0.07026    1.000
    Si2687   Si       0.40956    0.94905    0.00997    1.000
    N2688    N        0.41346    0.91313    0.03453    1.000
    N2689    N        0.40608    0.94520    0.09970    1.000
    Si2690   Si       0.42517    0.78890    0.13842    1.000
    N2691    N        0.43351    0.81272    0.17356    1.000
    Si2692   Si       0.43883    0.79661    0.21213    1.000
    N2693    N        0.41925    0.82242    0.23948    1.000
    Si2694   Si       0.45693    0.96178    0.19094    1.000
    Si2695   Si       0.45039    0.88900    0.18735    1.000
    Si2696   Si       0.42733    0.91960    0.12840    1.000
    N2697    N        0.45568    0.94931    0.14837    1.000
    N2698    N        0.41477    0.89565    0.16363    1.000
    N2699    N        0.45388    0.92512    0.21162    1.000
    N2700    N        0.42529    0.98840    0.19965    1.000
    Si2701   Si       0.43779    0.84457    0.33276    1.000
    N2702    N        0.45335    0.80865    0.35401    1.000
    Si2703   Si       0.44460    0.85400    0.25665    1.000
    Si2704   Si       0.41203    0.79683    0.35921    1.000
    N2705    N        0.45891    0.84800    0.29551    1.000
    N2706    N        0.42822    0.88517    0.34760    1.000
    N2707    N        0.41737    0.89039    0.26240    1.000
    Si2708   Si       0.42890    0.96371    0.31581    1.000
    N2709    N        0.43808    0.95838    0.27395    1.000
    Si2710   Si       0.44832    0.92042    0.25394    1.000
    N2711    N        0.45665    0.95223    0.34624    1.000
    Si2712   Si       0.45962    0.91059    0.36466    1.000
    N2713    N        0.41820    0.00606    0.31893    1.000
    Si2714   Si       0.45787    0.76907    0.45266    1.000
    N2715    N        0.41628    0.76616    0.46819    1.000
    N2716    N        0.42590    0.82936    0.46605    1.000
    Si2717   Si       0.41728    0.84588    0.42600    1.000
    N2718    N        0.45817    0.84578    0.41114    1.000
    Si2719   Si       0.46569    0.83706    0.48041    1.000
    N2720    N        0.45233    0.94445    0.47181    1.000
    N2721    N        0.46061    0.91898    0.40718    1.000
    Si2722   Si       0.44699    0.95303    0.42962    1.000
    Si2723   Si       0.43268    0.84517    0.55397    1.000
    N2724    N        0.42471    0.80554    0.57400    1.000
    N2725    N        0.43986    0.87484    0.58671    1.000
    Si2726   Si       0.41539    0.80392    0.61610    1.000
    N2727    N        0.46455    0.83316    0.52533    1.000
    N2728    N        0.43476    0.99597    0.57755    1.000
    Si2729   Si       0.44100    0.95249    0.57753    1.000
    N2730    N        0.42326    0.93609    0.54193    1.000
    Si2731   Si       0.44025    0.96105    0.51037    1.000
    N2732    N        0.41791    0.94335    0.61446    1.000
    N2733    N        0.41378    0.99484    0.50017    1.000
    Si2734   Si       0.43717    0.86855    0.63092    1.000
    N2735    N        0.44592    0.82718    0.63560    1.000
    N2736    N        0.41467    0.76375    0.63268    1.000
    N2737    N        0.42381    0.75934    0.73391    1.000
    N2738    N        0.41582    0.89276    0.73585    1.000
    N2739    N        0.41139    0.99852    0.64685    1.000
    N2740    N        0.41366    0.94046    0.68694    1.000
    Si2741   Si       0.43447    0.93141    0.72299    1.000
    Si2742   Si       0.43121    0.95997    0.65059    1.000
    Si2743   Si       0.42149    0.78568    0.82933    1.000
    Si2744   Si       0.43567    0.86567    0.76391    1.000
    N2745    N        0.43222    0.82254    0.76286    1.000
    N2746    N        0.40788    0.81718    0.85510    1.000
    N2747    N        0.42400    0.87820    0.80397    1.000
    Si2748   Si       0.40308    0.79260    0.75574    1.000
    Si2749   Si       0.45035    0.89313    0.83604    1.000
    N2750    N        0.41043    0.99584    0.83862    1.000
    N2751    N        0.44430    0.93435    0.84696    1.000
    Si2752   Si       0.40882    0.95872    0.85834    1.000
    Si2753   Si       0.42346    0.00623    0.75547    1.000
    N2754    N        0.44090    0.96762    0.74870    1.000
    N2755    N        0.44513    0.87262    0.87477    1.000
    N2756    N        0.42349    0.79847    0.98801    1.000
    Si2757   Si       0.43636    0.83148    0.88469    1.000
    N2758    N        0.42614    0.82796    0.92770    1.000
    Si2759   Si       0.44224    0.79239    0.94917    1.000
    N2760    N        0.41070    0.96634    0.90200    1.000
    N2761    N        0.42527    0.95019    0.96749    1.000
    N2762    N        0.41287    0.89706    0.93059    1.000
    Si2763   Si       0.42064    0.00391    0.92052    1.000
    Si2764   Si       0.45345    0.89402    0.91257    1.000
    Si2765   Si       0.40223    0.93842    0.93402    1.000
    Si2766   Si       0.50650    0.10241    0.03142    1.000
    N2767    N        0.50208    0.07821    0.10811    1.000
    Si2768   Si       0.49969    0.04528    0.07904    1.000
    N2769    N        0.47057    0.11259    0.05706    1.000
    N2770    N        0.51203    0.05915    0.03842    1.000
    Si2771   Si       0.46874    0.10670    0.10073    1.000
    N2772    N        0.46162    0.02825    0.06972    1.000
    Si2773   Si       0.50906    0.21572    0.01798    1.000
    N2774    N        0.47191    0.23174    0.03755    1.000
    Si2775   Si       0.47652    0.08647    0.21098    1.000
    Si2776   Si       0.48901    0.02230    0.17252    1.000
    N2777    N        0.47445    0.11411    0.17631    1.000
    N2778    N        0.46996    0.01614    0.13374    1.000
    N2779    N        0.46434    0.04633    0.19672    1.000
    N2780    N        0.51665    0.08295    0.22679    1.000
    N2781    N        0.48904    0.24211    0.15875    1.000
    N2782    N        0.51393    0.15186    0.21855    1.000
    Si2783   Si       0.49296    0.20776    0.13238    1.000
    Si2784   Si       0.51135    0.13713    0.17701    1.000
    N2785    N        0.49701    0.16912    0.15360    1.000
    N2786    N        0.48379    0.08903    0.35649    1.000
    N2787    N        0.47317    0.02037    0.25978    1.000
    N2788    N        0.48376    0.01595    0.34122    1.000
    Si2789   Si       0.46479    0.05455    0.34294    1.000
    N2790    N        0.50787    0.12781    0.28270    1.000
    Si2791   Si       0.51610    0.01973    0.26596    1.000
    Si2792   Si       0.48820    0.15256    0.31277    1.000
    N2793    N        0.50311    0.19077    0.29994    1.000
    N2794    N        0.50259    0.15172    0.35266    1.000
    N2795    N        0.47039    0.24653    0.26395    1.000
    Si2796   Si       0.46789    0.20541    0.27998    1.000
    Si2797   Si       0.48402    0.14087    0.24779    1.000
    N2798    N        0.45996    0.17923    0.24746    1.000
    N2799    N        0.48035    0.01656    0.48029    1.000
    Si2800   Si       0.51003    0.02840    0.45211    1.000
    N2801    N        0.49429    0.12246    0.46460    1.000
    N2802    N        0.48248    0.05382    0.42632    1.000
    Si2803   Si       0.50334    0.09067    0.43596    1.000
    N2804    N        0.47979    0.22210    0.37137    1.000
    N2805    N        0.51091    0.19157    0.45249    1.000
    N2806    N        0.46518    0.23801    0.48208    1.000
    Si2807   Si       0.50662    0.23159    0.47118    1.000
    Si2808   Si       0.49630    0.18213    0.38247    1.000
    Si2809   Si       0.47934    0.16115    0.45034    1.000
    N2810    N        0.46662    0.16291    0.40971    1.000
    N2811    N        0.49994    0.02430    0.55316    1.000
    N2812    N        0.50591    0.08800    0.52967    1.000
    Si2813   Si       0.51396    0.11373    0.61577    1.000
    N2814    N        0.47953    0.02248    0.61759    1.000
    Si2815   Si       0.46445    0.02751    0.57783    1.000
    Si2816   Si       0.46177    0.08641    0.53015    1.000
    N2817    N        0.49416    0.14004    0.58602    1.000
    Si2818   Si       0.49003    0.15115    0.54297    1.000
    N2819    N        0.48390    0.19310    0.55431    1.000
    Si2820   Si       0.47680    0.17922    0.59657    1.000
    N2821    N        0.51417    0.25720    0.56701    1.000
    Si2822   Si       0.51760    0.24487    0.60864    1.000
    Si2823   Si       0.51826    0.21803    0.54572    1.000
    N2824    N        0.48845    0.21564    0.61700    1.000
    N2825    N        0.50055    0.04554    0.67297    1.000
    N2826    N        0.48039    0.11012    0.64513    1.000
    Si2827   Si       0.47208    0.07762    0.67244    1.000
    Si2828   Si       0.49859    0.09101    0.73837    1.000
    N2829    N        0.46390    0.09174    0.71329    1.000
    Si2830   Si       0.51840    0.03893    0.63109    1.000
    N2831    N        0.51455    0.05203    0.74488    1.000
    Si2832   Si       0.51885    0.02834    0.70855    1.000
    Si2833   Si       0.51605    0.16768    0.73899    1.000
    Si2834   Si       0.49479    0.22553    0.70003    1.000
    N2835    N        0.46768    0.24859    0.67662    1.000
    N2836    N        0.48574    0.18422    0.71310    1.000
    N2837    N        0.49926    0.25048    0.73869    1.000
    Si2838   Si       0.45822    0.23925    0.63594    1.000
    Si2839   Si       0.47751    0.05772    0.79592    1.000
    N2840    N        0.47198    0.09707    0.77477    1.000
    Si2841   Si       0.47974    0.08906    0.86295    1.000
    N2842    N        0.50092    0.11364    0.82848    1.000
    N2843    N        0.51708    0.04084    0.80619    1.000
    N2844    N        0.46015    0.02182    0.77604    1.000
    Si2845   Si       0.47755    0.13410    0.79709    1.000
    N2846    N        0.50436    0.16532    0.78191    1.000
    N2847    N        0.49935    0.24064    0.86756    1.000
    N2848    N        0.46633    0.25700    0.80194    1.000
    Si2849   Si       0.50135    0.25359    0.82626    1.000
    N2850    N        0.50801    0.04409    0.97294    1.000
    Si2851   Si       0.47716    0.01861    0.89453    1.000
    N2852    N        0.49817    0.05602    0.88733    1.000
    Si2853   Si       0.46919    0.03155    0.96349    1.000
    Si2854   Si       0.50067    0.08480    0.95856    1.000
    N2855    N        0.50144    0.11278    0.99168    1.000
    Si2856   Si       0.49704    0.15165    0.90175    1.000
    N2857    N        0.51317    0.23925    0.93418    1.000
    Si2858   Si       0.47589    0.15026    0.97960    1.000
    N2859    N        0.46886    0.17607    0.87956    1.000
    N2860    N        0.49645    0.18828    0.98408    1.000
    N2861    N        0.47252    0.14625    0.93696    1.000
    Si2862   Si       0.46589    0.22006    0.88472    1.000
    N2863    N        0.46069    0.25662    0.97252    1.000
    N2864    N        0.50312    0.30801    0.03239    1.000
    N2865    N        0.50705    0.34405    0.09913    1.000
    Si2866   Si       0.47093    0.31807    0.09908    1.000
    N2867    N        0.47072    0.27381    0.10038    1.000
    Si2868   Si       0.51895    0.34472    0.05682    1.000
    N2869    N        0.51227    0.38310    0.04211    1.000
    N2870    N        0.47026    0.42786    0.00876    1.000
    Si2871   Si       0.48501    0.41848    0.05006    1.000
    N2872    N        0.50027    0.45233    0.07108    1.000
    Si2873   Si       0.51729    0.44925    0.10979    1.000
    N2874    N        0.48359    0.35008    0.21778    1.000
    Si2875   Si       0.49793    0.37957    0.19144    1.000
    Si2876   Si       0.51221    0.31829    0.23284    1.000
    Si2877   Si       0.50995    0.37635    0.12863    1.000
    N2878    N        0.47277    0.38440    0.15398    1.000
    N2879    N        0.52006    0.28186    0.21267    1.000
    Si2880   Si       0.46958    0.49363    0.14351    1.000
    Si2881   Si       0.46746    0.42688    0.16613    1.000
    Si2882   Si       0.46492    0.43211    0.23875    1.000
    N2883    N        0.47758    0.47600    0.24132    1.000
    N2884    N        0.48661    0.41914    0.20394    1.000
    N2885    N        0.48832    0.45444    0.14126    1.000
    Si2886   Si       0.50811    0.49542    0.21784    1.000
    N2887    N        0.47772    0.34562    0.32942    1.000
    Si2888   Si       0.50039    0.26684    0.28364    1.000
    N2889    N        0.50066    0.30867    0.27348    1.000
    Si2890   Si       0.51142    0.33671    0.30518    1.000
    N2891    N        0.49232    0.26037    0.32529    1.000
    Si2892   Si       0.50647    0.25787    0.36696    1.000
    Si2893   Si       0.48748    0.34216    0.37082    1.000
    N2894    N        0.47100    0.42316    0.28169    1.000
    Si2895   Si       0.48364    0.44911    0.35884    1.000
    N2896    N        0.49753    0.48814    0.35134    1.000
    N2897    N        0.51043    0.41857    0.34042    1.000
    Si2898   Si       0.50987    0.41433    0.29662    1.000
    N2899    N        0.49269    0.29664    0.38447    1.000
    N2900    N        0.50497    0.33353    0.44995    1.000
    Si2901   Si       0.49569    0.33678    0.49334    1.000
    N2902    N        0.51523    0.36802    0.38753    1.000
    Si2903   Si       0.51527    0.30094    0.42202    1.000
    N2904    N        0.51168    0.26291    0.44026    1.000
    Si2905   Si       0.51452    0.44677    0.48574    1.000
    Si2906   Si       0.48337    0.48071    0.42722    1.000
    N2907    N        0.47564    0.45750    0.46325    1.000
    N2908    N        0.46325    0.45107    0.40121    1.000
    N2909    N        0.48607    0.39803    0.43888    1.000
    N2910    N        0.49024    0.30034    0.51615    1.000
    Si2911   Si       0.49175    0.30758    0.61679    1.000
    Si2912   Si       0.51429    0.36963    0.59162    1.000
    N2913    N        0.51594    0.32646    0.58563    1.000
    N2914    N        0.47778    0.37757    0.56463    1.000
    N2915    N        0.46165    0.36406    0.49626    1.000
    N2916    N        0.45947    0.27609    0.61180    1.000
    N2917    N        0.46412    0.34319    0.62267    1.000
    Si2918   Si       0.46914    0.39885    0.52723    1.000
    N2919    N        0.50601    0.41348    0.51171    1.000
    N2920    N        0.46722    0.42827    0.61538    1.000
    N2921    N        0.50908    0.49992    0.61546    1.000
    Si2922   Si       0.49817    0.32394    0.72199    1.000
    N2923    N        0.50617    0.36536    0.72900    1.000
    N2924    N        0.46652    0.31862    0.69240    1.000
    Si2925   Si       0.47800    0.46990    0.62738    1.000
    Si2926   Si       0.49294    0.41256    0.64906    1.000
    N2927    N        0.46957    0.38890    0.67647    1.000
    N2928    N        0.47619    0.42481    0.74399    1.000
    Si2929   Si       0.48458    0.48107    0.69487    1.000
    N2930    N        0.50180    0.45313    0.66407    1.000
    Si2931   Si       0.47097    0.38869    0.72090    1.000
    N2932    N        0.52029    0.47365    0.72022    1.000
    Si2933   Si       0.48786    0.32372    0.80497    1.000
    N2934    N        0.48679    0.31029    0.76273    1.000
    N2935    N        0.48934    0.36710    0.81656    1.000
    Si2936   Si       0.46890    0.27171    0.76062    1.000
    N2937    N        0.51155    0.29733    0.82720    1.000
    Si2938   Si       0.46679    0.47010    0.81359    1.000
    N2939    N        0.50285    0.47026    0.78943    1.000
    N2940    N        0.48085    0.49689    0.84458    1.000
    Si2941   Si       0.51196    0.44684    0.75514    1.000
    N2942    N        0.50308    0.36210    0.92914    1.000
    N2943    N        0.50264    0.30551    0.95625    1.000
    Si2944   Si       0.47058    0.33636    0.95199    1.000
    Si2945   Si       0.50138    0.26497    0.96739    1.000
    N2946    N        0.48957    0.49279    0.99503    1.000
    N2947    N        0.49151    0.40230    0.87844    1.000
    Si2948   Si       0.50138    0.45104    0.98895    1.000
    N2949    N        0.51112    0.43548    0.94854    1.000
    Si2950   Si       0.51262    0.40344    0.91767    1.000
    Si2951   Si       0.48086    0.55351    0.09486    1.000
    Si2952   Si       0.49106    0.58703    0.02687    1.000
    N2953    N        0.50584    0.56565    0.06141    1.000
    Si2954   Si       0.50356    0.62343    0.11487    1.000
    N2955    N        0.47624    0.59010    0.11889    1.000
    N2956    N        0.49437    0.51930    0.11826    1.000
    N2957    N        0.52010    0.62065    0.02683    1.000
    Si2958   Si       0.50650    0.65607    0.04772    1.000
    N2959    N        0.48729    0.65183    0.08717    1.000
    N2960    N        0.47830    0.68048    0.02303    1.000
    N2961    N        0.49987    0.74936    0.02343    1.000
    N2962    N        0.47482    0.72517    0.08127    1.000
    Si2963   Si       0.49993    0.71180    0.00118    1.000
    Si2964   Si       0.46182    0.68573    0.09207    1.000
    Si2965   Si       0.48141    0.62227    0.18372    1.000
    N2966    N        0.48038    0.58063    0.19630    1.000
    Si2967   Si       0.51404    0.57318    0.22299    1.000
    N2968    N        0.51495    0.53326    0.23673    1.000
    N2969    N        0.47880    0.50905    0.18288    1.000
    N2970    N        0.51290    0.63814    0.15442    1.000
    N2971    N        0.47042    0.73942    0.17225    1.000
    Si2972   Si       0.51191    0.72909    0.17650    1.000
    Si2973   Si       0.47561    0.73632    0.12543    1.000
    N2974    N        0.48800    0.71693    0.24007    1.000
    Si2975   Si       0.50824    0.68114    0.22783    1.000
    N2976    N        0.47864    0.64918    0.21859    1.000
    N2977    N        0.47271    0.59161    0.32214    1.000
    N2978    N        0.47803    0.52914    0.29338    1.000
    Si2979   Si       0.51451    0.55080    0.27799    1.000
    N2980    N        0.51239    0.59371    0.26187    1.000
    Si2981   Si       0.46482    0.54728    0.32966    1.000
    Si2982   Si       0.51342    0.58610    0.34002    1.000
    N2983    N        0.49033    0.55401    0.36344    1.000
    Si2984   Si       0.51393    0.63308    0.27780    1.000
    N2985    N        0.47391    0.64956    0.28456    1.000
    Si2986   Si       0.49643    0.73740    0.32799    1.000
    Si2987   Si       0.46915    0.75119    0.25830    1.000
    N2988    N        0.47333    0.64777    0.36578    1.000
    N2989    N        0.49865    0.75892    0.29033    1.000
    Si2990   Si       0.50929    0.51822    0.38135    1.000
    N2991    N        0.49222    0.53550    0.47820    1.000
    Si2992   Si       0.48128    0.55434    0.44193    1.000
    Si2993   Si       0.47188    0.62608    0.45743    1.000
    N2994    N        0.47089    0.52053    0.41385    1.000
    N2995    N        0.46118    0.72608    0.46330    1.000
    N2996    N        0.50933    0.63944    0.43737    1.000
    N2997    N        0.48359    0.70839    0.40065    1.000
    Si2998   Si       0.48016    0.69346    0.44139    1.000
    Si2999   Si       0.50527    0.74660    0.40055    1.000
    Si3000   Si       0.50867    0.64107    0.39171    1.000
    N3001    N        0.52253    0.69742    0.45822    1.000
    N3002    N        0.49087    0.53945    0.55137    1.000
    N3003    N        0.46444    0.55243    0.62141    1.000
    N3004    N        0.47869    0.62913    0.50039    1.000
    Si3005   Si       0.48774    0.51257    0.51227    1.000
    Si3006   Si       0.45861    0.62202    0.59779    1.000
    N3007    N        0.49682    0.63750    0.61560    1.000
    N3008    N        0.49196    0.71676    0.55502    1.000
    Si3009   Si       0.49624    0.68200    0.58187    1.000
    N3010    N        0.46170    0.65444    0.56835    1.000
    Si3011   Si       0.50255    0.54081    0.63500    1.000
    N3012    N        0.47665    0.52045    0.67548    1.000
    Si3013   Si       0.49220    0.55425    0.69946    1.000
    N3014    N        0.50531    0.53807    0.73699    1.000
    N3015    N        0.51950    0.56492    0.66700    1.000
    N3016    N        0.48208    0.72372    0.70327    1.000
    N3017    N        0.49140    0.70277    0.62082    1.000
    Si3018   Si       0.51602    0.74128    0.62245    1.000
    N3019    N        0.46584    0.65436    0.67604    1.000
    Si3020   Si       0.49713    0.66798    0.64752    1.000
    Si3021   Si       0.50608    0.56512    0.77214    1.000
    N3022    N        0.46415    0.57818    0.77448    1.000
    N3023    N        0.49397    0.64059    0.78874    1.000
    Si3024   Si       0.49664    0.67674    0.81298    1.000
    N3025    N        0.49815    0.75046    0.84167    1.000
    Si3026   Si       0.46252    0.72645    0.85133    1.000
    N3027    N        0.51489    0.66645    0.85090    1.000
    N3028    N        0.50704    0.57789    0.92964    1.000
    Si3029   Si       0.47824    0.57395    0.95884    1.000
    N3030    N        0.50099    0.56050    0.99364    1.000
    Si3031   Si       0.51732    0.61368    0.90637    1.000
    N3032    N        0.48706    0.71964    0.96151    1.000
    N3033    N        0.47081    0.70926    0.89116    1.000
    N3034    N        0.48800    0.64285    0.91005    1.000
    Si3035   Si       0.50152    0.68030    0.89018    1.000
    N3036    N        0.48480    0.84063    0.09658    1.000
    Si3037   Si       0.50243    0.87901    0.02344    1.000
    N3038    N        0.46724    0.85336    0.01676    1.000
    Si3039   Si       0.48436    0.88033    0.11771    1.000
    N3040    N        0.46349    0.77759    0.12063    1.000
    Si3041   Si       0.51524    0.95254    0.00745    1.000
    N3042    N        0.47646    0.95719    0.08500    1.000
    N3043    N        0.50297    0.92185    0.03528    1.000
    N3044    N        0.49997    0.99291    0.01756    1.000
    Si3045   Si       0.51258    0.93465    0.07651    1.000
    Si3046   Si       0.45969    0.00473    0.03246    1.000
    N3047    N        0.52094    0.90269    0.10396    1.000
    N3048    N        0.47589    0.78559    0.22913    1.000
    Si3049   Si       0.50377    0.86473    0.19889    1.000
    N3050    N        0.46641    0.86302    0.22096    1.000
    N3051    N        0.48546    0.87951    0.16207    1.000
    Si3052   Si       0.51646    0.79392    0.21765    1.000
    N3053    N        0.49701    0.98050    0.18867    1.000
    Si3054   Si       0.47989    0.97455    0.12492    1.000
    Si3055   Si       0.49057    0.87820    0.30773    1.000
    N3056    N        0.51411    0.76009    0.35904    1.000
    N3057    N        0.49573    0.88663    0.35004    1.000
    N3058    N        0.48448    0.90574    0.27472    1.000
    Si3059   Si       0.47960    0.97901    0.37023    1.000
    Si3060   Si       0.52472    0.79549    0.49541    1.000
    N3061    N        0.51598    0.82481    0.37308    1.000
    N3062    N        0.48256    0.79507    0.48019    1.000
    N3063    N        0.47792    0.77750    0.41461    1.000
    Si3064   Si       0.47793    0.81190    0.38855    1.000
    N3065    N        0.47323    0.87902    0.46872    1.000
    Si3066   Si       0.47525    0.88204    0.42608    1.000
    N3067    N        0.46437    0.98809    0.40930    1.000
    Si3068   Si       0.48477    0.91805    0.48627    1.000
    N3069    N        0.51696    0.88797    0.41486    1.000
    Si3070   Si       0.50452    0.85732    0.53213    1.000
    N3071    N        0.49966    0.85859    0.57580    1.000
    N3072    N        0.50904    0.77887    0.53450    1.000
    Si3073   Si       0.46889    0.78810    0.52304    1.000
    Si3074   Si       0.47873    0.89254    0.59509    1.000
    N3075    N        0.49750    0.89830    0.52384    1.000
    N3076    N        0.47899    0.93307    0.58290    1.000
    N3077    N        0.48113    0.96669    0.52437    1.000
    Si3078   Si       0.50193    0.93415    0.54660    1.000
    Si3079   Si       0.49788    0.00229    0.51667    1.000
    N3080    N        0.48188    0.76728    0.62595    1.000
    Si3081   Si       0.47993    0.80292    0.65077    1.000
    N3082    N        0.47445    0.79121    0.69062    1.000
    Si3083   Si       0.46482    0.76079    0.71956    1.000
    N3084    N        0.51664    0.86920    0.69251    1.000
    N3085    N        0.51918    0.82425    0.64540    1.000
    Si3086   Si       0.49458    0.95856    0.69290    1.000
    N3087    N        0.47561    0.92373    0.71092    1.000
    Si3088   Si       0.49987    0.89122    0.72614    1.000
    N3089    N        0.46739    0.97814    0.66601    1.000
    Si3090   Si       0.51360    0.89710    0.65789    1.000
    N3091    N        0.50272    0.99052    0.72105    1.000
    N3092    N        0.47460    0.88944    0.63867    1.000
    Si3093   Si       0.49214    0.79394    0.84995    1.000
    Si3094   Si       0.46988    0.81063    0.77982    1.000
    Si3095   Si       0.51341    0.87085    0.78602    1.000
    N3096    N        0.47832    0.86907    0.75747    1.000
    N3097    N        0.48541    0.77799    0.75249    1.000
    N3098    N        0.49013    0.88139    0.82258    1.000
    N3099    N        0.51273    0.82493    0.78532    1.000
    N3100    N        0.46171    0.80043    0.81978    1.000
    N3101    N        0.48465    0.99245    0.86029    1.000
    Si3102   Si       0.48183    0.98746    0.75971    1.000
    N3103    N        0.51166    0.97669    0.78897    1.000
    Si3104   Si       0.47848    0.94839    0.86911    1.000
    N3105    N        0.51644    0.93175    0.85491    1.000
    Si3106   Si       0.51084    0.00108    0.82612    1.000
    N3107    N        0.48347    0.79994    0.95302    1.000
    Si3108   Si       0.49042    0.83168    0.92305    1.000
    N3109    N        0.48589    0.87383    0.93146    1.000
    N3110    N        0.47521    0.81206    0.88667    1.000
    N3111    N        0.46747    0.93447    0.90825    1.000
    N3112    N        0.46430    0.99933    0.93340    1.000
    N3113    N        0.49920    0.93905    0.96970    1.000
    Si3114   Si       0.51612    0.90094    0.95236    1.000
    Si3115   Si       0.46511    0.95645    0.94661    1.000
    N3116    N        0.53833    0.11982    0.05464    1.000
    N3117    N        0.53432    0.02046    0.08710    1.000
    N3118    N        0.57183    0.07880    0.11451    1.000
    Si3119   Si       0.52545    0.02857    0.00851    1.000
    N3120    N        0.56801    0.02553    0.00655    1.000
    Si3121   Si       0.57142    0.10630    0.08032    1.000
    Si3122   Si       0.55680    0.15817    0.05248    1.000
    Si3123   Si       0.54958    0.22103    0.07358    1.000
    N3124    N        0.53356    0.19506    0.04641    1.000
    N3125    N        0.53073    0.21518    0.11063    1.000
    N3126    N        0.52796    0.25340    0.00082    1.000
    N3127    N        0.52610    0.04556    0.16614    1.000
    Si3128   Si       0.54441    0.05718    0.20460    1.000
    N3129    N        0.54294    0.11355    0.16012    1.000
    Si3130   Si       0.53433    0.07703    0.13715    1.000
    N3131    N        0.54443    0.02132    0.23088    1.000
    Si3132   Si       0.54478    0.18112    0.22141    1.000
    Si3133   Si       0.56705    0.22081    0.13260    1.000
    Si3134   Si       0.52508    0.25266    0.17988    1.000
    Si3135   Si       0.55267    0.25411    0.23264    1.000
    N3136    N        0.53997    0.22042    0.20576    1.000
    N3137    N        0.55232    0.09620    0.33998    1.000
    Si3138   Si       0.55737    0.05856    0.31982    1.000
    N3139    N        0.55670    0.02240    0.34267    1.000
    N3140    N        0.53024    0.05562    0.28739    1.000
    Si3141   Si       0.52951    0.09433    0.26744    1.000
    N3142    N        0.57162    0.10793    0.26402    1.000
    Si3143   Si       0.51835    0.11346    0.36348    1.000
    N3144    N        0.53836    0.24542    0.27232    1.000
    Si3145   Si       0.54315    0.20539    0.29146    1.000
    N3146    N        0.56246    0.18131    0.26143    1.000
    N3147    N        0.57177    0.21138    0.32579    1.000
    Si3148   Si       0.56509    0.21737    0.36804    1.000
    N3149    N        0.53072    0.06779    0.46376    1.000
    N3150    N        0.52825    0.10980    0.40630    1.000
    Si3151   Si       0.56838    0.12128    0.41704    1.000
    Si3152   Si       0.57266    0.07143    0.47324    1.000
    Si3153   Si       0.52473    0.11206    0.49789    1.000
    Si3154   Si       0.54962    0.19018    0.43412    1.000
    Si3155   Si       0.57203    0.21716    0.49506    1.000
    N3156    N        0.53854    0.19226    0.39280    1.000
    N3157    N        0.56946    0.15236    0.44477    1.000
    N3158    N        0.57077    0.22051    0.45275    1.000
    N3159    N        0.56542    0.06010    0.54628    1.000
    Si3160   Si       0.52497    0.06280    0.55943    1.000
    N3161    N        0.57046    0.13054    0.56755    1.000
    N3162    N        0.57105    0.10745    0.49964    1.000
    N3163    N        0.52233    0.07313    0.60295    1.000
    N3164    N        0.53088    0.22765    0.50613    1.000
    N3165    N        0.55309    0.19921    0.56307    1.000
    Si3166   Si       0.56312    0.16233    0.53960    1.000
    N3167    N        0.52585    0.15148    0.51920    1.000
    N3168    N        0.55472    0.22975    0.62344    1.000
    N3169    N        0.52317    0.12419    0.73222    1.000
    N3170    N        0.55404    0.01430    0.63005    1.000
    N3171    N        0.56116    0.03437    0.69851    1.000
    Si3172   Si       0.56771    0.13291    0.72352    1.000
    N3173    N        0.53734    0.23849    0.69076    1.000
    N3174    N        0.54512    0.13714    0.63329    1.000
    Si3175   Si       0.55264    0.25971    0.65527    1.000
    Si3176   Si       0.57025    0.21371    0.71197    1.000
    N3177    N        0.55510    0.17529    0.72004    1.000
    N3178    N        0.56811    0.24192    0.74759    1.000
    Si3179   Si       0.54553    0.04254    0.77418    1.000
    Si3180   Si       0.53704    0.12839    0.84667    1.000
    N3181    N        0.57686    0.11362    0.84974    1.000
    N3182    N        0.57190    0.18663    0.78891    1.000
    N3183    N        0.53309    0.23067    0.80749    1.000
    Si3184   Si       0.53271    0.18704    0.80773    1.000
    N3185    N        0.53958    0.17286    0.84756    1.000
    Si3186   Si       0.57357    0.23016    0.78939    1.000
    Si3187   Si       0.57814    0.11309    0.95109    1.000
    Si3188   Si       0.53361    0.07904    0.90020    1.000
    N3189    N        0.53907    0.09416    0.94000    1.000
    N3190    N        0.56698    0.05070    0.89054    1.000
    N3191    N        0.51611    0.11566    0.88625    1.000
    Si3192   Si       0.52252    0.19946    0.95214    1.000
    N3193    N        0.53067    0.17575    0.91639    1.000
    Si3194   Si       0.52931    0.25160    0.89634    1.000
    Si3195   Si       0.57152    0.24802    0.98444    1.000
    N3196    N        0.56831    0.22927    0.88946    1.000
    Si3197   Si       0.55985    0.18655    0.88443    1.000
    N3198    N        0.56114    0.20687    0.96891    1.000
    Si3199   Si       0.54431    0.28874    0.02966    1.000
    N3200    N        0.55919    0.32666    0.05451    1.000
    N3201    N        0.56503    0.36858    0.00183    1.000
    N3202    N        0.57767    0.29704    0.00160    1.000
    N3203    N        0.55750    0.26012    0.05887    1.000
    Si3204   Si       0.56346    0.47519    0.00962    1.000
    Si3205   Si       0.54866    0.40057    0.02417    1.000
    N3206    N        0.53836    0.43994    0.01180    1.000
    N3207    N        0.53432    0.40746    0.11349    1.000
    N3208    N        0.54930    0.47701    0.11506    1.000
    Si3209   Si       0.57618    0.40456    0.09994    1.000
    N3210    N        0.55176    0.33620    0.23619    1.000
    N3211    N        0.53196    0.36848    0.16733    1.000
    N3212    N        0.56174    0.25657    0.15646    1.000
    N3213    N        0.54865    0.47528    0.22049    1.000
    N3214    N        0.57501    0.40252    0.23914    1.000
    Si3215   Si       0.56655    0.44362    0.24699    1.000
    Si3216   Si       0.55984    0.36891    0.26212    1.000
    N3217    N        0.54136    0.32356    0.33413    1.000
    N3218    N        0.52391    0.37387    0.28633    1.000
    Si3219   Si       0.56125    0.30086    0.36815    1.000
    N3220    N        0.55062    0.25848    0.36956    1.000
    N3221    N        0.53808    0.44096    0.27840    1.000
    N3222    N        0.56704    0.49487    0.32101    1.000
    Si3223   Si       0.53840    0.40045    0.36882    1.000
    N3224    N        0.57646    0.38851    0.34848    1.000
    N3225    N        0.55479    0.31477    0.40902    1.000
    N3226    N        0.56083    0.37754    0.44165    1.000
    Si3227   Si       0.51848    0.37121    0.43312    1.000
    N3228    N        0.54812    0.44149    0.46065    1.000
    N3229    N        0.52270    0.48829    0.41329    1.000
    Si3230   Si       0.55476    0.46031    0.42067    1.000
    N3231    N        0.55999    0.43419    0.38728    1.000
    N3232    N        0.56404    0.29283    0.53847    1.000
    N3233    N        0.53228    0.35046    0.51605    1.000
    Si3234   Si       0.57112    0.32822    0.51501    1.000
    Si3235   Si       0.52195    0.29753    0.55113    1.000
    Si3236   Si       0.53944    0.39208    0.52679    1.000
    N3237    N        0.54335    0.39336    0.56899    1.000
    Si3238   Si       0.55524    0.48840    0.53332    1.000
    N3239    N        0.55577    0.46266    0.57082    1.000
    Si3240   Si       0.57029    0.42438    0.58565    1.000
    Si3241   Si       0.54877    0.50086    0.59521    1.000
    N3242    N        0.57713    0.40268    0.50554    1.000
    N3243    N        0.51990    0.48212    0.51051    1.000
    Si3244   Si       0.53812    0.26462    0.72702    1.000
    N3245    N        0.53751    0.30535    0.71263    1.000
    Si3246   Si       0.57593    0.32844    0.70408    1.000
    N3247    N        0.57923    0.35279    0.66435    1.000
    N3248    N        0.52039    0.28143    0.63706    1.000
    N3249    N        0.57895    0.47262    0.68289    1.000
    Si3250   Si       0.54439    0.38756    0.73181    1.000
    N3251    N        0.54941    0.40980    0.69305    1.000
    N3252    N        0.52138    0.38551    0.63237    1.000
    N3253    N        0.57343    0.42404    0.62777    1.000
    Si3254   Si       0.53975    0.45196    0.68753    1.000
    Si3255   Si       0.56122    0.39079    0.65382    1.000
    Si3256   Si       0.54527    0.30697    0.85377    1.000
    N3257    N        0.54885    0.35182    0.85370    1.000
    Si3258   Si       0.51716    0.38264    0.84639    1.000
    Si3259   Si       0.56957    0.41231    0.79840    1.000
    N3260    N        0.54982    0.48800    0.84022    1.000
    N3261    N        0.54398    0.41468    0.83455    1.000
    N3262    N        0.54278    0.41720    0.76385    1.000
    N3263    N        0.55834    0.49985    0.77180    1.000
    Si3264   Si       0.52896    0.50119    0.80494    1.000
    Si3265   Si       0.51664    0.49219    0.86840    1.000
    N3266    N        0.56815    0.33559    0.93741    1.000
    Si3267   Si       0.52737    0.32360    0.92546    1.000
    N3268    N        0.53393    0.29428    0.89353    1.000
    Si3269   Si       0.54068    0.46976    0.93702    1.000
    Si3270   Si       0.55711    0.43394    0.87239    1.000
    N3271    N        0.57498    0.46790    0.96759    1.000
    N3272    N        0.53395    0.46409    0.89507    1.000
    N3273    N        0.55481    0.40034    0.89937    1.000
    N3274    N        0.54295    0.61535    0.09546    1.000
    Si3275   Si       0.54585    0.57515    0.07523    1.000
    Si3276   Si       0.56041    0.61023    0.01555    1.000
    N3277    N        0.55276    0.51687    0.01243    1.000
    N3278    N        0.55896    0.54763    0.10568    1.000
    N3279    N        0.54565    0.67391    0.05355    1.000
    Si3280   Si       0.56508    0.65320    0.08793    1.000
    Si3281   Si       0.56791    0.68331    0.01766    1.000
    Si3282   Si       0.53644    0.51769    0.12713    1.000
    N3283    N        0.54808    0.58827    0.20351    1.000
    N3284    N        0.55463    0.51881    0.16767    1.000
    Si3285   Si       0.56131    0.72307    0.11879    1.000
    N3286    N        0.55873    0.67904    0.12057    1.000
    N3287    N        0.53022    0.69127    0.19052    1.000
    Si3288   Si       0.54793    0.66350    0.16027    1.000
    N3289    N        0.52108    0.73387    0.13207    1.000
    N3290    N        0.53473    0.76090    0.19597    1.000
    Si3291   Si       0.56719    0.53443    0.33703    1.000
    N3292    N        0.53780    0.55599    0.31467    1.000
    N3293    N        0.52629    0.62517    0.31874    1.000
    Si3294   Si       0.55576    0.63261    0.35113    1.000
    Si3295   Si       0.55209    0.69451    0.29058    1.000
    Si3296   Si       0.55808    0.69873    0.35129    1.000
    N3297    N        0.53497    0.66777    0.26027    1.000
    N3298    N        0.56472    0.73485    0.27605    1.000
    N3299    N        0.52591    0.70801    0.32242    1.000
    N3300    N        0.57674    0.67385    0.32066    1.000
    N3301    N        0.53238    0.60372    0.37644    1.000
    N3302    N        0.55144    0.53700    0.37743    1.000
    Si3303   Si       0.53404    0.55071    0.47570    1.000
    Si3304   Si       0.54833    0.57215    0.40246    1.000
    N3305    N        0.57288    0.53165    0.48218    1.000
    N3306    N        0.52481    0.56509    0.43684    1.000
    Si3307   Si       0.54049    0.65612    0.46175    1.000
    N3308    N        0.54180    0.66588    0.37499    1.000
    N3309    N        0.54400    0.74733    0.41868    1.000
    Si3310   Si       0.54986    0.73002    0.45911    1.000
    N3311    N        0.55455    0.52517    0.55904    1.000
    N3312    N        0.52970    0.56118    0.60626    1.000
    Si3313   Si       0.52690    0.56120    0.55999    1.000
    Si3314   Si       0.53243    0.62807    0.59086    1.000
    N3315    N        0.56480    0.61882    0.61554    1.000
    N3316    N        0.54273    0.57796    0.51055    1.000
    N3317    N        0.51840    0.60407    0.55810    1.000
    Si3318   Si       0.52044    0.61682    0.51723    1.000
    Si3319   Si       0.56091    0.67646    0.53588    1.000
    N3320    N        0.55803    0.72060    0.53167    1.000
    N3321    N        0.53591    0.66655    0.57026    1.000
    N3322    N        0.54248    0.65028    0.50463    1.000
    N3323    N        0.54055    0.75489    0.59033    1.000
    Si3324   Si       0.52348    0.74318    0.55026    1.000
    N3325    N        0.55846    0.61669    0.68277    1.000
    Si3326   Si       0.54937    0.58591    0.64117    1.000
    Si3327   Si       0.53998    0.51018    0.73403    1.000
    N3328    N        0.57032    0.53658    0.71816    1.000
    N3329    N        0.55057    0.73306    0.72317    1.000
    Si3330   Si       0.52347    0.72266    0.69023    1.000
    N3331    N        0.54190    0.74430    0.65585    1.000
    N3332    N        0.52741    0.68054    0.67674    1.000
    N3333    N        0.54831    0.66105    0.74340    1.000
    Si3334   Si       0.55432    0.65690    0.69859    1.000
    Si3335   Si       0.53703    0.56144    0.84794    1.000
    N3336    N        0.52971    0.60213    0.86484    1.000
    N3337    N        0.53805    0.59130    0.75636    1.000
    N3338    N        0.55915    0.63294    0.80957    1.000
    Si3339   Si       0.53364    0.63095    0.77295    1.000
    N3340    N        0.52044    0.54523    0.80958    1.000
    Si3341   Si       0.54746    0.63974    0.85023    1.000
    Si3342   Si       0.54681    0.70510    0.75526    1.000
    Si3343   Si       0.53142    0.74099    0.81582    1.000
    N3344    N        0.57121    0.73535    0.83160    1.000
    N3345    N        0.51990    0.70755    0.79126    1.000
    N3346    N        0.52331    0.53387    0.87762    1.000
    Si3347   Si       0.53029    0.54350    0.91903    1.000
    N3348    N        0.56656    0.57887    0.98315    1.000
    N3349    N        0.55331    0.62783    0.92954    1.000
    N3350    N        0.57085    0.55829    0.91850    1.000
    Si3351   Si       0.57629    0.59146    0.94449    1.000
    N3352    N        0.52525    0.50861    0.94500    1.000
    Si3353   Si       0.51882    0.52283    0.98619    1.000
    N3354    N        0.54237    0.70373    0.99058    1.000
    N3355    N        0.54266    0.75949    0.94658    1.000
    Si3356   Si       0.56928    0.66550    0.91572    1.000
    Si3357   Si       0.52913    0.71848    0.95069    1.000
    N3358    N        0.53465    0.69372    0.91541    1.000
    N3359    N        0.53847    0.79664    0.06750    1.000
    Si3360   Si       0.53261    0.77713    0.02640    1.000
    N3361    N        0.53238    0.85764    0.04655    1.000
    Si3362   Si       0.55265    0.84734    0.00710    1.000
    Si3363   Si       0.53095    0.83650    0.08509    1.000
    N3364    N        0.57465    0.76285    0.02465    1.000
    N3365    N        0.53679    0.80852    0.99849    1.000
    Si3366   Si       0.58347    0.78033    0.06385    1.000
    N3367    N        0.55070    0.95673    0.06798    1.000
    Si3368   Si       0.55294    0.98539    0.10019    1.000
    N3369    N        0.54367    0.84589    0.12598    1.000
    Si3370   Si       0.55882    0.83132    0.16453    1.000
    N3371    N        0.52482    0.82799    0.19096    1.000
    Si3372   Si       0.57628    0.76222    0.18585    1.000
    N3373    N        0.57169    0.98080    0.18188    1.000
    Si3374   Si       0.56645    0.89871    0.19541    1.000
    Si3375   Si       0.57745    0.99718    0.22142    1.000
    N3376    N        0.53260    0.88904    0.22031    1.000
    Si3377   Si       0.55271    0.89193    0.13098    1.000
    N3378    N        0.55008    0.91977    0.16389    1.000
    N3379    N        0.52344    0.96889    0.12891    1.000
    Si3380   Si       0.53439    0.96178    0.17014    1.000
    Si3381   Si       0.55677    0.83072    0.28062    1.000
    N3382    N        0.55335    0.79963    0.31238    1.000
    Si3383   Si       0.54168    0.79691    0.35361    1.000
    Si3384   Si       0.53968    0.76863    0.28261    1.000
    N3385    N        0.52843    0.86221    0.29076    1.000
    N3386    N        0.53883    0.80053    0.25395    1.000
    N3387    N        0.58033    0.79216    0.37287    1.000
    N3388    N        0.55757    0.91837    0.27609    1.000
    Si3389   Si       0.56301    0.96023    0.28598    1.000
    N3390    N        0.52989    0.98793    0.29226    1.000
    Si3391   Si       0.52255    0.99880    0.33249    1.000
    Si3392   Si       0.52409    0.89738    0.26112    1.000
    N3393    N        0.52222    0.97337    0.37040    1.000
    N3394    N        0.55389    0.76596    0.48441    1.000
    N3395    N        0.56850    0.86676    0.38633    1.000
    Si3396   Si       0.52512    0.86685    0.37826    1.000
    Si3397   Si       0.57400    0.84570    0.48840    1.000
    N3398    N        0.56674    0.87915    0.45812    1.000
    Si3399   Si       0.54582    0.91038    0.43902    1.000
    N3400    N        0.53836    0.99929    0.43950    1.000
    Si3401   Si       0.55306    0.97759    0.40110    1.000
    Si3402   Si       0.54867    0.96996    0.47188    1.000
    N3403    N        0.56794    0.93966    0.41839    1.000
    N3404    N        0.52288    0.93454    0.47058    1.000
    N3405    N        0.55937    0.83175    0.58563    1.000
    Si3406   Si       0.52835    0.84770    0.61029    1.000
    Si3407   Si       0.56767    0.78933    0.58531    1.000
    N3408    N        0.53326    0.83720    0.50464    1.000
    Si3409   Si       0.55922    0.91688    0.59494    1.000
    N3410    N        0.54370    0.93832    0.55908    1.000
    N3411    N        0.54020    0.99279    0.50837    1.000
    Si3412   Si       0.56649    0.96313    0.53217    1.000
    N3413    N        0.57415    0.94895    0.62025    1.000
    N3414    N        0.53481    0.89021    0.62090    1.000
    N3415    N        0.54292    0.80294    0.71711    1.000
    Si3416   Si       0.54033    0.83339    0.68503    1.000
    Si3417   Si       0.57276    0.77211    0.72389    1.000
    N3418    N        0.56967    0.95606    0.73679    1.000
    Si3419   Si       0.56803    0.94631    0.66399    1.000
    Si3420   Si       0.56862    0.91222    0.73126    1.000
    N3421    N        0.52449    0.93650    0.66962    1.000
    N3422    N        0.53494    0.89554    0.75266    1.000
    Si3423   Si       0.54727    0.82568    0.81460    1.000
    N3424    N        0.53304    0.81025    0.85121    1.000
    N3425    N        0.55029    0.87096    0.81162    1.000
    N3426    N        0.54560    0.77210    0.78667    1.000
    Si3427   Si       0.52416    0.79361    0.75599    1.000
    Si3428   Si       0.52584    0.89073    0.84639    1.000
    N3429    N        0.54859    0.99290    0.84818    1.000
    Si3430   Si       0.55355    0.95039    0.84512    1.000
    Si3431   Si       0.55523    0.96720    0.77579    1.000
    N3432    N        0.56901    0.93779    0.80571    1.000
    N3433    N        0.57096    0.00702    0.78109    1.000
    N3434    N        0.54653    0.87042    0.87788    1.000
    N3435    N        0.52575    0.87523    0.98676    1.000
    Si3436   Si       0.55105    0.82793    0.88746    1.000
    N3437    N        0.53365    0.82449    0.92666    1.000
    Si3438   Si       0.52645    0.79669    0.95905    1.000
    Si3439   Si       0.57363    0.89892    0.89789    1.000
    N3440    N        0.55488    0.91095    0.93540    1.000
    N3441    N        0.57836    0.93504    0.87590    1.000
    N3442    N        0.55899    0.94873    0.99823    1.000
    N3443    N        0.60360    0.09105    0.05607    1.000
    Si3444   Si       0.60166    0.11397    0.01778    1.000
    N3445    N        0.59820    0.22654    0.01134    1.000
    N3446    N        0.58973    0.21742    0.09334    1.000
    Si3447   Si       0.60610    0.17702    0.10717    1.000
    N3448    N        0.58463    0.15233    0.01947    1.000
    N3449    N        0.58107    0.14847    0.08873    1.000
    N3450    N        0.61382    0.11494    0.14952    1.000
    Si3451   Si       0.62009    0.05439    0.19784    1.000
    N3452    N        0.61704    0.01776    0.22034    1.000
    Si3453   Si       0.61157    0.07264    0.13037    1.000
    N3454    N        0.61174    0.03695    0.15548    1.000
    N3455    N        0.58170    0.07642    0.19869    1.000
    Si3456   Si       0.58139    0.11598    0.17923    1.000
    Si3457   Si       0.61836    0.25116    0.20303    1.000
    N3458    N        0.58846    0.18723    0.14743    1.000
    N3459    N        0.58142    0.14870    0.20644    1.000
    N3460    N        0.60969    0.20929    0.21172    1.000
    Si3461   Si       0.60864    0.17670    0.18281    1.000
    Si3462   Si       0.63110    0.19553    0.24605    1.000
    Si3463   Si       0.60799    0.09357    0.28384    1.000
    Si3464   Si       0.59308    0.10665    0.35142    1.000
    N3465    N        0.59888    0.05868    0.30793    1.000
    N3466    N        0.61893    0.11756    0.31818    1.000
    Si3467   Si       0.63234    0.05458    0.33603    1.000
    N3468    N        0.63216    0.01277    0.34310    1.000
    N3469    N        0.61452    0.07529    0.37008    1.000
    Si3470   Si       0.61525    0.21936    0.31821    1.000
    N3471    N        0.61997    0.22477    0.27600    1.000
    N3472    N        0.62606    0.15695    0.26373    1.000
    Si3473   Si       0.58586    0.14613    0.25154    1.000
    Si3474   Si       0.61400    0.16879    0.36889    1.000
    Si3475   Si       0.64039    0.01060    0.39039    1.000
    N3476    N        0.58957    0.08796    0.43683    1.000
    Si3477   Si       0.62083    0.07275    0.41133    1.000
    N3478    N        0.62634    0.03265    0.42690    1.000
    N3479    N        0.59282    0.03660    0.48842    1.000
    Si3480   Si       0.63070    0.02848    0.47071    1.000
    Si3481   Si       0.63360    0.24566    0.47342    1.000
    N3482    N        0.63650    0.13744    0.47467    1.000
    Si3483   Si       0.59369    0.14257    0.47940    1.000
    N3484    N        0.58769    0.13694    0.38069    1.000
    N3485    N        0.60297    0.20837    0.38495    1.000
    Si3486   Si       0.63003    0.22617    0.41302    1.000
    N3487    N        0.62603    0.09525    0.55044    1.000
    Si3488   Si       0.58301    0.09848    0.54283    1.000
    Si3489   Si       0.58644    0.02615    0.53103    1.000
    N3490    N        0.63060    0.02722    0.54204    1.000
    N3491    N        0.60455    0.17692    0.60862    1.000
    N3492    N        0.60943    0.24347    0.58016    1.000
    N3493    N        0.60588    0.24310    0.50774    1.000
    N3494    N        0.58609    0.17720    0.50587    1.000
    Si3495   Si       0.58167    0.21202    0.59426    1.000
    Si3496   Si       0.58055    0.14038    0.61087    1.000
    N3497    N        0.60713    0.10921    0.62476    1.000
    Si3498   Si       0.61337    0.09718    0.66796    1.000
    N3499    N        0.61391    0.05137    0.66414    1.000
    N3500    N        0.58470    0.09924    0.70134    1.000
    Si3501   Si       0.58248    0.01830    0.66363    1.000
    Si3502   Si       0.59569    0.05369    0.71352    1.000
    N3503    N        0.61711    0.01488    0.72676    1.000
    N3504    N        0.60509    0.22520    0.68969    1.000
    Si3505   Si       0.61183    0.08772    0.83527    1.000
    N3506    N        0.59696    0.04595    0.82848    1.000
    Si3507   Si       0.60420    0.03279    0.78662    1.000
    Si3508   Si       0.60948    0.09602    0.75723    1.000
    N3509    N        0.62946    0.09806    0.79730    1.000
    N3510    N        0.58164    0.06309    0.76120    1.000
    Si3511   Si       0.57828    0.02247    0.85996    1.000
    N3512    N        0.59831    0.13615    0.75379    1.000
    N3513    N        0.60866    0.24109    0.81197    1.000
    Si3514   Si       0.60865    0.16552    0.78224    1.000
    N3515    N        0.62664    0.16934    0.82249    1.000
    N3516    N        0.58638    0.08809    0.98642    1.000
    Si3517   Si       0.60158    0.12592    0.88355    1.000
    N3518    N        0.59991    0.09955    0.91691    1.000
    Si3519   Si       0.60390    0.05562    0.91254    1.000
    N3520    N        0.60802    0.03269    0.94786    1.000
    Si3521   Si       0.59953    0.04692    0.98741    1.000
    N3522    N        0.59136    0.15188    0.95706    1.000
    Si3523   Si       0.60315    0.24658    0.90963    1.000
    N3524    N        0.63220    0.21731    0.92861    1.000
    Si3525   Si       0.62189    0.17252    0.93062    1.000
    N3526    N        0.59896    0.16632    0.89282    1.000
    Si3527   Si       0.59248    0.18360    0.99023    1.000
    N3528    N        0.63827    0.18559    0.98223    1.000
    N3529    N        0.59686    0.29023    0.10551    1.000
    Si3530   Si       0.59217    0.32928    0.08502    1.000
    N3531    N        0.62149    0.34009    0.05502    1.000
    Si3532   Si       0.59036    0.33708    0.02055    1.000
    N3533    N        0.58279    0.36207    0.11139    1.000
    Si3534   Si       0.59902    0.25785    0.07699    1.000
    Si3535   Si       0.63005    0.49584    0.02931    1.000
    N3536    N        0.59611    0.47014    0.03695    1.000
    Si3537   Si       0.61113    0.42788    0.03777    1.000
    N3538    N        0.60653    0.43195    0.11624    1.000
    N3539    N        0.57883    0.40666    0.05598    1.000
    N3540    N        0.61218    0.41803    0.99661    1.000
    Si3541   Si       0.58329    0.31808    0.21310    1.000
    N3542    N        0.62842    0.26989    0.16450    1.000
    Si3543   Si       0.59151    0.28583    0.14844    1.000
    N3544    N        0.61425    0.34567    0.22870    1.000
    N3545    N        0.58699    0.27587    0.22083    1.000
    N3546    N        0.58122    0.32305    0.16963    1.000
    Si3547   Si       0.57368    0.36144    0.15517    1.000
    Si3548   Si       0.61675    0.42765    0.16232    1.000
    N3549    N        0.59750    0.46356    0.17390    1.000
    N3550    N        0.59981    0.39167    0.17536    1.000
    Si3551   Si       0.59061    0.47247    0.12853    1.000
    Si3552   Si       0.60940    0.38839    0.21787    1.000
    Si3553   Si       0.57958    0.49562    0.19498    1.000
    N3554    N        0.59923    0.31436    0.34885    1.000
    N3555    N        0.59274    0.35927    0.28944    1.000
    Si3556   Si       0.62638    0.33842    0.26864    1.000
    N3557    N        0.62297    0.29923    0.28585    1.000
    Si3558   Si       0.57892    0.34893    0.32978    1.000
    N3559    N        0.61694    0.45100    0.33585    1.000
    N3560    N        0.60535    0.45629    0.26403    1.000
    Si3561   Si       0.60038    0.47662    0.30276    1.000
    Si3562   Si       0.59860    0.42268    0.36379    1.000
    N3563    N        0.62692    0.50921    0.28640    1.000
    N3564    N        0.62141    0.34286    0.42208    1.000
    N3565    N        0.62644    0.26577    0.43491    1.000
    N3566    N        0.58285    0.32048    0.47578    1.000
    Si3567   Si       0.58065    0.33880    0.43595    1.000
    Si3568   Si       0.58096    0.41083    0.46378    1.000
    N3569    N        0.62737    0.41762    0.39679    1.000
    N3570    N        0.59324    0.47845    0.43280    1.000
    N3571    N        0.62334    0.42540    0.45928    1.000
    Si3572   Si       0.62863    0.45218    0.42539    1.000
    Si3573   Si       0.59592    0.49777    0.47231    1.000
    N3574    N        0.60198    0.35106    0.53562    1.000
    N3575    N        0.60763    0.32727    0.60025    1.000
    Si3576   Si       0.59785    0.26646    0.54270    1.000
    Si3577   Si       0.62957    0.33110    0.56436    1.000
    N3578    N        0.63528    0.29293    0.54298    1.000
    Si3579   Si       0.61017    0.39280    0.53239    1.000
    N3580    N        0.60755    0.42482    0.56151    1.000
    N3581    N        0.59299    0.47850    0.51358    1.000
    Si3582   Si       0.62121    0.46024    0.53916    1.000
    N3583    N        0.60759    0.29767    0.71134    1.000
    Si3584   Si       0.61585    0.26972    0.67792    1.000
    Si3585   Si       0.60177    0.32396    0.64071    1.000
    N3586    N        0.58693    0.28352    0.64939    1.000
    N3587    N        0.57839    0.36155    0.73398    1.000
    N3588    N        0.58406    0.50098    0.62200    1.000
    Si3589   Si       0.59294    0.46309    0.64224    1.000
    N3590    N        0.63452    0.45128    0.64417    1.000
    N3591    N        0.61773    0.49199    0.73975    1.000
    Si3592   Si       0.59796    0.50587    0.70341    1.000
    Si3593   Si       0.60688    0.36356    0.76561    1.000
    Si3594   Si       0.61827    0.27423    0.83745    1.000
    Si3595   Si       0.59367    0.34635    0.83544    1.000
    N3596    N        0.58551    0.30279    0.83568    1.000
    N3597    N        0.58505    0.37305    0.80081    1.000
    N3598    N        0.63073    0.32880    0.76523    1.000
    Si3599   Si       0.59264    0.48775    0.84961    1.000
    Si3600   Si       0.59771    0.48280    0.77644    1.000
    N3601    N        0.59951    0.44165    0.79041    1.000
    N3602    N        0.59843    0.44604    0.86297    1.000
    N3603    N        0.61147    0.50438    0.81346    1.000
    Si3604   Si       0.58170    0.36684    0.90920    1.000
    N3605    N        0.60790    0.34498    0.88250    1.000
    Si3606   Si       0.59434    0.30784    0.95950    1.000
    N3607    N        0.62424    0.27091    0.88155    1.000
    N3608    N        0.62047    0.34529    0.98824    1.000
    Si3609   Si       0.59963    0.38032    0.97798    1.000
    Si3610   Si       0.63296    0.30998    0.89812    1.000
    N3611    N        0.58564    0.26588    0.94602    1.000
    Si3612   Si       0.61517    0.45352    0.97098    1.000
    N3613    N        0.63424    0.45238    0.93154    1.000
    N3614    N        0.60729    0.50844    0.88631    1.000
    N3615    N        0.60990    0.38894    0.93640    1.000
    N3616    N        0.62062    0.57819    0.10373    1.000
    Si3617   Si       0.61643    0.59915    0.06531    1.000
    N3618    N        0.62116    0.53614    0.01533    1.000
    Si3619   Si       0.58078    0.54902    0.01414    1.000
    N3620    N        0.57759    0.58185    0.04521    1.000
    N3621    N        0.61475    0.50822    0.12256    1.000
    N3622    N        0.60465    0.64120    0.07282    1.000
    N3623    N        0.60697    0.70025    0.02882    1.000
    Si3624   Si       0.61178    0.74194    0.01592    1.000
    Si3625   Si       0.62679    0.73740    0.08451    1.000
    Si3626   Si       0.62919    0.67299    0.05526    1.000
    N3627    N        0.58513    0.74837    0.09251    1.000
    N3628    N        0.58195    0.64446    0.00087    1.000
    Si3629   Si       0.59737    0.54669    0.12552    1.000
    N3630    N        0.60605    0.56977    0.16280    1.000
    N3631    N        0.61103    0.51989    0.21163    1.000
    Si3632   Si       0.58499    0.60023    0.18648    1.000
    N3633    N        0.61630    0.60066    0.21606    1.000
    Si3634   Si       0.63448    0.55928    0.20080    1.000
    Si3635   Si       0.62443    0.72434    0.17645    1.000
    N3636    N        0.63442    0.68878    0.15526    1.000
    Si3637   Si       0.62574    0.65263    0.17512    1.000
    N3638    N        0.58267    0.64034    0.17007    1.000
    N3639    N        0.58721    0.73720    0.15276    1.000
    N3640    N        0.59892    0.73625    0.21227    1.000
    N3641    N        0.59481    0.61570    0.34648    1.000
    N3642    N        0.60766    0.54849    0.34232    1.000
    Si3643   Si       0.61121    0.58320    0.37027    1.000
    N3644    N        0.61689    0.63503    0.28083    1.000
    Si3645   Si       0.60243    0.74215    0.25607    1.000
    Si3646   Si       0.61148    0.64823    0.32008    1.000
    N3647    N        0.63371    0.71595    0.27214    1.000
    N3648    N        0.58741    0.72455    0.37029    1.000
    Si3649   Si       0.60025    0.61007    0.44390    1.000
    N3650    N        0.59037    0.58305    0.40938    1.000
    N3651    N        0.60111    0.59704    0.48415    1.000
    N3652    N        0.63778    0.66680    0.48357    1.000
    N3653    N        0.58692    0.71087    0.47056    1.000
    Si3654   Si       0.60950    0.67947    0.45266    1.000
    N3655    N        0.58075    0.64907    0.44263    1.000
    N3656    N        0.62897    0.69498    0.41652    1.000
    Si3657   Si       0.62655    0.70107    0.37255    1.000
    Si3658   Si       0.58095    0.75716    0.39794    1.000
    N3659    N        0.62469    0.60763    0.58446    1.000
    N3660    N        0.62167    0.55217    0.53271    1.000
    Si3661   Si       0.58800    0.56497    0.50872    1.000
    Si3662   Si       0.60557    0.62506    0.61934    1.000
    N3663    N        0.62301    0.72575    0.52652    1.000
    N3664    N        0.60174    0.66483    0.54102    1.000
    Si3665   Si       0.62796    0.64797    0.56888    1.000
    N3666    N        0.61698    0.66691    0.60646    1.000
    Si3667   Si       0.58920    0.75021    0.51514    1.000
    Si3668   Si       0.61131    0.53274    0.63384    1.000
    N3669    N        0.61024    0.59308    0.72029    1.000
    N3670    N        0.58604    0.56508    0.64947    1.000
    Si3671   Si       0.59692    0.59512    0.67895    1.000
    N3672    N        0.62675    0.51926    0.67211    1.000
    N3673    N        0.62217    0.62245    0.65805    1.000
    Si3674   Si       0.57731    0.57189    0.74330    1.000
    Si3675   Si       0.59569    0.66920    0.74516    1.000
    N3676    N        0.63256    0.72056    0.72034    1.000
    Si3677   Si       0.63267    0.65516    0.68353    1.000
    Si3678   Si       0.63499    0.74622    0.68695    1.000
    Si3679   Si       0.58365    0.75491    0.65122    1.000
    N3680    N        0.61576    0.72441    0.65281    1.000
    N3681    N        0.59538    0.66752    0.70238    1.000
    N3682    N        0.59864    0.57448    0.78302    1.000
    Si3683   Si       0.59817    0.61399    0.80188    1.000
    Si3684   Si       0.60838    0.54678    0.81586    1.000
    N3685    N        0.62477    0.62084    0.83649    1.000
    N3686    N        0.58026    0.55721    0.84729    1.000
    N3687    N        0.61267    0.63905    0.77036    1.000
    Si3688   Si       0.61393    0.72343    0.83921    1.000
    N3689    N        0.58790    0.70453    0.76743    1.000
    Si3690   Si       0.62158    0.73199    0.76343    1.000
    Si3691   Si       0.62127    0.65325    0.86464    1.000
    N3692    N        0.62758    0.75018    0.80589    1.000
    N3693    N        0.63380    0.68687    0.83785    1.000
    Si3694   Si       0.59936    0.55069    0.88702    1.000
    N3695    N        0.61597    0.60935    0.94821    1.000
    N3696    N        0.63292    0.57754    0.88982    1.000
    N3697    N        0.63400    0.73589    0.97826    1.000
    Si3698   Si       0.60798    0.64555    0.96868    1.000
    N3699    N        0.62802    0.74258    0.87515    1.000
    N3700    N        0.59687    0.68150    0.94385    1.000
    N3701    N        0.57919    0.65727    0.87370    1.000
    Si3702   Si       0.63351    0.69983    0.95488    1.000
    N3703    N        0.60261    0.80999    0.09468    1.000
    Si3704   Si       0.61876    0.84866    0.10620    1.000
    N3705    N        0.59566    0.84628    0.00589    1.000
    N3706    N        0.63179    0.76069    0.04882    1.000
    N3707    N        0.59244    0.88520    0.11086    1.000
    Si3708   Si       0.61568    0.88414    0.01237    1.000
    N3709    N        0.59703    0.90909    0.04093    1.000
    N3710    N        0.61490    0.97062    0.04269    1.000
    Si3711   Si       0.61548    0.90381    0.07940    1.000
    N3712    N        0.59618    0.98362    0.11188    1.000
    Si3713   Si       0.62954    0.97858    0.08234    1.000
    N3714    N        0.63784    0.93526    0.09500    1.000
    Si3715   Si       0.58033    0.94946    0.03712    1.000
    Si3716   Si       0.60156    0.77718    0.12780    1.000
    Si3717   Si       0.62996    0.86143    0.17630    1.000
    N3718    N        0.58634    0.86369    0.17610    1.000
    N3719    N        0.58547    0.79754    0.16360    1.000
    Si3720   Si       0.60388    0.99161    0.15401    1.000
    Si3721   Si       0.63146    0.93619    0.20192    1.000
    N3722    N        0.63419    0.96362    0.16579    1.000
    N3723    N        0.59804    0.91669    0.22385    1.000
    Si3724   Si       0.61426    0.80694    0.35123    1.000
    N3725    N        0.61729    0.84701    0.34053    1.000
    N3726    N        0.58892    0.85466    0.26108    1.000
    N3727    N        0.61521    0.78549    0.25737    1.000
    Si3728   Si       0.62021    0.82759    0.24887    1.000
    Si3729   Si       0.60796    0.87568    0.37106    1.000
    N3730    N        0.62291    0.89866    0.29526    1.000
    Si3731   Si       0.62125    0.93147    0.32703    1.000
    Si3732   Si       0.59371    0.89784    0.26441    1.000
    Si3733   Si       0.59163    0.99592    0.34526    1.000
    N3734    N        0.58932    0.96064    0.32081    1.000
    N3735    N        0.58901    0.97727    0.25812    1.000
    N3736    N        0.61856    0.91755    0.36897    1.000
    Si3737   Si       0.63119    0.98930    0.25175    1.000
    Si3738   Si       0.58600    0.85664    0.42441    1.000
    Si3739   Si       0.62054    0.79233    0.45743    1.000
    N3740    N        0.62669    0.86431    0.40939    1.000
    N3741    N        0.59214    0.82437    0.45490    1.000
    N3742    N        0.61121    0.76194    0.42765    1.000
    N3743    N        0.62558    0.78048    0.49781    1.000
    N3744    N        0.59288    0.98812    0.38818    1.000
    N3745    N        0.58532    0.95427    0.49430    1.000
    Si3746   Si       0.61000    0.94892    0.40000    1.000
    N3747    N        0.62774    0.92887    0.43834    1.000
    Si3748   Si       0.62583    0.95129    0.47711    1.000
    Si3749   Si       0.59094    0.85316    0.56474    1.000
    N3750    N        0.62645    0.83149    0.58059    1.000
    N3751    N        0.59958    0.84201    0.52253    1.000
    Si3752   Si       0.62630    0.80605    0.53840    1.000
    N3753    N        0.58920    0.78096    0.54865    1.000
    Si3754   Si       0.63024    0.80460    0.61505    1.000
    N3755    N        0.59360    0.78378    0.62052    1.000
    Si3756   Si       0.57763    0.98917    0.60437    1.000
    N3757    N        0.59089    0.89538    0.57679    1.000
    Si3758   Si       0.62554    0.91321    0.59176    1.000
    N3759    N        0.58179    0.99346    0.56067    1.000
    N3760    N        0.63515    0.95380    0.57460    1.000
    N3761    N        0.61819    0.00562    0.61563    1.000
    Si3762   Si       0.60663    0.88172    0.66833    1.000
    N3763    N        0.59954    0.77382    0.68757    1.000
    Si3764   Si       0.61445    0.81643    0.68585    1.000
    N3765    N        0.58156    0.84582    0.67713    1.000
    N3766    N        0.59083    0.97918    0.67733    1.000
    N3767    N        0.58303    0.91253    0.68803    1.000
    Si3768   Si       0.60538    0.97398    0.71689    1.000
    N3769    N        0.62795    0.89034    0.62996    1.000
    N3770    N        0.58840    0.81272    0.81800    1.000
    Si3771   Si       0.58751    0.77090    0.80175    1.000
    Si3772   Si       0.62528    0.83602    0.82808    1.000
    N3773    N        0.60226    0.77527    0.75718    1.000
    N3774    N        0.61761    0.88174    0.83016    1.000
    Si3775   Si       0.58576    0.89800    0.79837    1.000
    N3776    N        0.60310    0.90036    0.75507    1.000
    N3777    N        0.59175    0.81493    0.89516    1.000
    Si3778   Si       0.63213    0.83267    0.98354    1.000
    Si3779   Si       0.63394    0.81628    0.90653    1.000
    N3780    N        0.63583    0.84321    0.94327    1.000
    Si3781   Si       0.61201    0.95585    0.89193    1.000
    N3782    N        0.60154    0.95969    0.93460    1.000
    Si3783   Si       0.63225    0.88680    0.93971    1.000
    N3784    N        0.61232    0.90407    0.97385    1.000
    Si3785   Si       0.62780    0.99310    0.94488    1.000
    N3786    N        0.60732    0.99743    0.87869    1.000
    N3787    N        0.61598    0.89015    0.90094    1.000
    Si3788   Si       0.58108    0.93323    0.96301    1.000
    N3789    N        0.68275    0.07228    0.04365    1.000
    N3790    N        0.64331    0.11869    0.00840    1.000
    Si3791   Si       0.66634    0.08328    0.00433    1.000
    N3792    N        0.64738    0.06990    0.10419    1.000
    Si3793   Si       0.67380    0.02927    0.10466    1.000
    Si3794   Si       0.64012    0.06524    0.05968    1.000
    N3795    N        0.64157    0.02225    0.06793    1.000
    N3796    N        0.63695    0.04691    0.00994    1.000
    Si3797   Si       0.67547    0.16797    0.07657    1.000
    N3798    N        0.64964    0.18170    0.04433    1.000
    Si3799   Si       0.67735    0.24297    0.08233    1.000
    Si3800   Si       0.65878    0.15811    0.00704    1.000
    N3801    N        0.64599    0.16289    0.10856    1.000
    N3802    N        0.63843    0.24865    0.06148    1.000
    Si3803   Si       0.63886    0.22172    0.02816    1.000
    N3804    N        0.66431    0.24048    0.99719    1.000
    N3805    N        0.65391    0.07938    0.19330    1.000
    Si3806   Si       0.66917    0.09586    0.22883    1.000
    N3807    N        0.68738    0.11232    0.13890    1.000
    Si3808   Si       0.68294    0.07749    0.16265    1.000
    N3809    N        0.68700    0.03985    0.14463    1.000
    N3810    N        0.64806    0.16084    0.17889    1.000
    N3811    N        0.68803    0.25578    0.12356    1.000
    N3812    N        0.67205    0.19702    0.23355    1.000
    Si3813   Si       0.68343    0.17079    0.20175    1.000
    Si3814   Si       0.68498    0.23653    0.24054    1.000
    Si3815   Si       0.65006    0.13460    0.14158    1.000
    N3816    N        0.67071    0.06847    0.31781    1.000
    Si3817   Si       0.66841    0.05455    0.27685    1.000
    N3818    N        0.65419    0.01279    0.28005    1.000
    N3819    N        0.63867    0.08188    0.25657    1.000
    Si3820   Si       0.64449    0.14973    0.30487    1.000
    Si3821   Si       0.68158    0.24496    0.32217    1.000
    N3822    N        0.68800    0.13836    0.31138    1.000
    N3823    N        0.68407    0.25457    0.28084    1.000
    Si3824   Si       0.67387    0.18861    0.36398    1.000
    N3825    N        0.63996    0.25435    0.32922    1.000
    N3826    N        0.63369    0.18159    0.33170    1.000
    N3827    N        0.65703    0.05898    0.48688    1.000
    N3828    N        0.67690    0.03540    0.38699    1.000
    Si3829   Si       0.66759    0.10858    0.46230    1.000
    N3830    N        0.65759    0.09465    0.42292    1.000
    Si3831   Si       0.69039    0.07389    0.40049    1.000
    N3832    N        0.67499    0.25355    0.48997    1.000
    Si3833   Si       0.68716    0.13873    0.40144    1.000
    N3834    N        0.66725    0.22602    0.39010    1.000
    Si3835   Si       0.66209    0.17294    0.46491    1.000
    N3836    N        0.63875    0.20494    0.45120    1.000
    N3837    N        0.65109    0.15675    0.38721    1.000
    N3838    N        0.69110    0.14625    0.44306    1.000
    N3839    N        0.65676    0.06558    0.60611    1.000
    Si3840   Si       0.65050    0.06401    0.53021    1.000
    N3841    N        0.69098    0.05330    0.54529    1.000
    Si3842   Si       0.63743    0.10198    0.59358    1.000
    N3843    N        0.66085    0.13966    0.59391    1.000
    N3844    N        0.67209    0.23599    0.54832    1.000
    Si3845   Si       0.65207    0.24451    0.58614    1.000
    N3846    N        0.66520    0.21197    0.61059    1.000
    Si3847   Si       0.64689    0.17338    0.61721    1.000
    N3848    N        0.68604    0.17842    0.50273    1.000
    Si3849   Si       0.69459    0.21708    0.51540    1.000
    N3850    N        0.67686    0.01961    0.65450    1.000
    Si3851   Si       0.67254    0.09489    0.72084    1.000
    N3852    N        0.65271    0.10900    0.67857    1.000
    Si3853   Si       0.64166    0.03602    0.63498    1.000
    Si3854   Si       0.65459    0.03103    0.74297    1.000
    N3855    N        0.68849    0.01150    0.72388    1.000
    N3856    N        0.63529    0.07317    0.73097    1.000
    N3857    N        0.67491    0.13915    0.72720    1.000
    N3858    N        0.65461    0.17335    0.66118    1.000
    N3859    N        0.67332    0.21068    0.71035    1.000
    N3860    N        0.65659    0.25367    0.66720    1.000
    Si3861   Si       0.67246    0.18144    0.74368    1.000
    Si3862   Si       0.64273    0.20984    0.67770    1.000
    Si3863   Si       0.68906    0.25154    0.69909    1.000
    Si3864   Si       0.67735    0.14406    0.68255    1.000
    Si3865   Si       0.67235    0.09418    0.79750    1.000
    Si3866   Si       0.68089    0.02561    0.81463    1.000
    N3867    N        0.64822    0.02777    0.78566    1.000
    N3868    N        0.68004    0.06720    0.83100    1.000
    Si3869   Si       0.66718    0.08190    0.87060    1.000
    N3870    N        0.63938    0.11377    0.86189    1.000
    N3871    N        0.69201    0.08020    0.76139    1.000
    N3872    N        0.68351    0.13325    0.80924    1.000
    N3873    N        0.67866    0.22068    0.82493    1.000
    Si3874   Si       0.65843    0.14943    0.84159    1.000
    Si3875   Si       0.64076    0.21208    0.80741    1.000
    N3876    N        0.63909    0.19361    0.76582    1.000
    N3877    N        0.68149    0.17167    0.87002    1.000
    Si3878   Si       0.68993    0.11864    0.93801    1.000
    Si3879   Si       0.64720    0.01271    0.88167    1.000
    N3880    N        0.69326    0.09221    0.97227    1.000
    N3881    N        0.69146    0.08790    0.90533    1.000
    N3882    N        0.63960    0.05396    0.88785    1.000
    Si3883   Si       0.66032    0.21798    0.96193    1.000
    N3884    N        0.66012    0.15042    0.92826    1.000
    Si3885   Si       0.69711    0.17986    0.91035    1.000
    Si3886   Si       0.66314    0.34119    0.03872    1.000
    N3887    N        0.66445    0.30580    0.01402    1.000
    N3888    N        0.67969    0.37765    0.02150    1.000
    Si3889   Si       0.68541    0.35364    0.10750    1.000
    Si3890   Si       0.68867    0.27028    0.01626    1.000
    N3891    N        0.69317    0.33359    0.07000    1.000
    N3892    N        0.67213    0.39234    0.09590    1.000
    Si3893   Si       0.65311    0.43151    0.10227    1.000
    N3894    N        0.64784    0.43060    0.05836    1.000
    Si3895   Si       0.68583    0.40621    0.05451    1.000
    N3896    N        0.68573    0.46294    0.10435    1.000
    Si3897   Si       0.69148    0.49885    0.08171    1.000
    N3898    N        0.66495    0.32692    0.13636    1.000
    Si3899   Si       0.66657    0.28302    0.15038    1.000
    Si3900   Si       0.67610    0.37797    0.23542    1.000
    N3901    N        0.65217    0.26133    0.22893    1.000
    N3902    N        0.69177    0.37056    0.19547    1.000
    Si3903   Si       0.69477    0.33704    0.16866    1.000
    Si3904   Si       0.69256    0.45816    0.14750    1.000
    N3905    N        0.66903    0.48042    0.23797    1.000
    N3906    N        0.65842    0.43130    0.15076    1.000
    N3907    N        0.64420    0.40771    0.23409    1.000
    N3908    N        0.66629    0.32440    0.33054    1.000
    N3909    N        0.66844    0.34793    0.26609    1.000
    Si3910   Si       0.64087    0.26291    0.27179    1.000
    Si3911   Si       0.68348    0.33135    0.36864    1.000
    Si3912   Si       0.63222    0.29746    0.32885    1.000
    N3913    N        0.68657    0.43819    0.35937    1.000
    N3914    N        0.66665    0.50155    0.33996    1.000
    Si3915   Si       0.65978    0.45690    0.33159    1.000
    N3916    N        0.67027    0.44154    0.29205    1.000
    Si3917   Si       0.64794    0.44630    0.25506    1.000
    N3918    N        0.67312    0.30961    0.45766    1.000
    N3919    N        0.66691    0.29843    0.39195    1.000
    N3920    N        0.67435    0.37155    0.37974    1.000
    Si3921   Si       0.64294    0.30612    0.42608    1.000
    Si3922   Si       0.64567    0.37915    0.41119    1.000
    N3923    N        0.67051    0.37784    0.44835    1.000
    Si3924   Si       0.69178    0.26230    0.38822    1.000
    Si3925   Si       0.66104    0.40901    0.47608    1.000
    N3926    N        0.66262    0.47995    0.41610    1.000
    N3927    N        0.63892    0.51018    0.47521    1.000
    N3928    N        0.66306    0.35715    0.56909    1.000
    N3929    N        0.67145    0.27975    0.60311    1.000
    Si3930   Si       0.67626    0.36412    0.60920    1.000
    Si3931   Si       0.67043    0.27434    0.52897    1.000
    Si3932   Si       0.68461    0.37375    0.53463    1.000
    N3933    N        0.64912    0.39329    0.51521    1.000
    N3934    N        0.65618    0.48351    0.53746    1.000
    N3935    N        0.66378    0.35280    0.70906    1.000
    N3936    N        0.67676    0.28596    0.72475    1.000
    Si3937   Si       0.67468    0.28949    0.64608    1.000
    Si3938   Si       0.66413    0.35034    0.66627    1.000
    Si3939   Si       0.64508    0.31561    0.72635    1.000
    N3940    N        0.69081    0.33244    0.63761    1.000
    N3941    N        0.64025    0.31450    0.66009    1.000
    N3942    N        0.65501    0.38427    0.64088    1.000
    N3943    N        0.66978    0.41906    0.69952    1.000
    N3944    N        0.68039    0.48573    0.70726    1.000
    Si3945   Si       0.66034    0.49061    0.74480    1.000
    Si3946   Si       0.66987    0.38855    0.72974    1.000
    Si3947   Si       0.66497    0.42488    0.65645    1.000
    Si3948   Si       0.65940    0.32330    0.79841    1.000
    N3949    N        0.65617    0.28345    0.82019    1.000
    N3950    N        0.64199    0.35139    0.82859    1.000
    Si3951   Si       0.64953    0.36209    0.87021    1.000
    N3952    N        0.67080    0.45834    0.77002    1.000
    N3953    N        0.65849    0.41989    0.82487    1.000
    Si3954   Si       0.64099    0.42816    0.78549    1.000
    Si3955   Si       0.64023    0.43335    0.86378    1.000
    N3956    N        0.63790    0.39373    0.75982    1.000
    N3957    N        0.68758    0.50087    0.82282    1.000
    N3958    N        0.66934    0.32627    0.88500    1.000
    Si3959   Si       0.65643    0.32253    0.97339    1.000
    N3960    N        0.69657    0.33629    0.96521    1.000
    N3961    N        0.63500    0.30513    0.94000    1.000
    N3962    N        0.66271    0.46972    0.87472    1.000
    Si3963   Si       0.63996    0.48688    0.90547    1.000
    Si3964   Si       0.64568    0.41057    0.92887    1.000
    Si3965   Si       0.67862    0.49671    0.97426    1.000
    N3966    N        0.64581    0.47692    0.99307    1.000
    N3967    N        0.68038    0.40399    0.95257    1.000
    N3968    N        0.65148    0.39930    0.88785    1.000
    N3969    N        0.65009    0.58882    0.04198    1.000
    Si3970   Si       0.66002    0.54725    0.03281    1.000
    N3971    N        0.68489    0.58906    0.11654    1.000
    Si3972   Si       0.69195    0.60310    0.04176    1.000
    N3973    N        0.65681    0.51160    0.05848    1.000
    N3974    N        0.68727    0.52828    0.00217    1.000
    N3975    N        0.66640    0.65569    0.04190    1.000
    Si3976   Si       0.68088    0.65437    0.00263    1.000
    N3977    N        0.68818    0.65962    0.11210    1.000
    N3978    N        0.64306    0.69785    0.08835    1.000
    N3979    N        0.69658    0.75338    0.02514    1.000
    Si3980   Si       0.64489    0.58475    0.13869    1.000
    N3981    N        0.66301    0.55438    0.16801    1.000
    N3982    N        0.65245    0.62418    0.15753    1.000
    N3983    N        0.65905    0.55258    0.23797    1.000
    Si3984   Si       0.69103    0.62651    0.13813    1.000
    Si3985   Si       0.63402    0.63092    0.24199    1.000
    N3986    N        0.63733    0.66649    0.21576    1.000
    Si3987   Si       0.66628    0.69371    0.12490    1.000
    Si3988   Si       0.67086    0.69361    0.21263    1.000
    N3989    N        0.66321    0.73396    0.19608    1.000
    N3990    N        0.66185    0.56791    0.30615    1.000
    Si3991   Si       0.67561    0.58292    0.26498    1.000
    Si3992   Si       0.67954    0.58570    0.34000    1.000
    N3993    N        0.67789    0.62534    0.25100    1.000
    Si3994   Si       0.64027    0.53140    0.32101    1.000
    Si3995   Si       0.63961    0.51337    0.24508    1.000
    Si3996   Si       0.67516    0.71722    0.28114    1.000
    Si3997   Si       0.68247    0.66346    0.34168    1.000
    N3998    N        0.63976    0.67111    0.34315    1.000
    N3999    N        0.69392    0.69375    0.24855    1.000
    N4000    N        0.68505    0.76006    0.28453    1.000
    N4001    N        0.65353    0.58417    0.37451    1.000
    N4002    N        0.64239    0.61722    0.43587    1.000
    Si4003   Si       0.66771    0.58988    0.41542    1.000
    N4004    N        0.67534    0.55516    0.44126    1.000
    Si4005   Si       0.67091    0.51125    0.44540    1.000
    N4006    N        0.68707    0.60994    0.49479    1.000
    Si4007   Si       0.69637    0.57021    0.47711    1.000
    Si4008   Si       0.66562    0.63725    0.46743    1.000
    N4009    N        0.68097    0.73214    0.44430    1.000
    Si4010   Si       0.64463    0.73555    0.41937    1.000
    N4011    N        0.65599    0.73524    0.37707    1.000
    Si4012   Si       0.68107    0.53660    0.61117    1.000
    N4013    N        0.68501    0.58760    0.56428    1.000
    Si4014   Si       0.64934    0.52123    0.51585    1.000
    N4015    N        0.68736    0.54339    0.51035    1.000
    Si4016   Si       0.69296    0.62121    0.53725    1.000
    N4017    N        0.63917    0.54283    0.60262    1.000
    Si4018   Si       0.64140    0.57120    0.57081    1.000
    N4019    N        0.66710    0.65615    0.55218    1.000
    N4020    N        0.66702    0.71192    0.59688    1.000
    N4021    N        0.67787    0.71142    0.51127    1.000
    Si4022   Si       0.65789    0.75247    0.51587    1.000
    Si4023   Si       0.67845    0.75332    0.58901    1.000
    Si4024   Si       0.69066    0.67806    0.58127    1.000
    Si4025   Si       0.63891    0.68543    0.52289    1.000
    Si4026   Si       0.63830    0.61594    0.74382    1.000
    N4027    N        0.68902    0.55170    0.69571    1.000
    Si4028   Si       0.67137    0.51607    0.67903    1.000
    N4029    N        0.69078    0.57566    0.62972    1.000
    N4030    N        0.68936    0.50941    0.64013    1.000
    Si4031   Si       0.69318    0.63066    0.72020    1.000
    N4032    N        0.65428    0.65230    0.72044    1.000
    Si4033   Si       0.66578    0.69596    0.73293    1.000
    Si4034   Si       0.64057    0.69699    0.62827    1.000
    N4035    N        0.66333    0.67831    0.66094    1.000
    Si4036   Si       0.69384    0.75989    0.72452    1.000
    N4037    N        0.64941    0.56137    0.82400    1.000
    Si4038   Si       0.65186    0.59246    0.85391    1.000
    N4039    N        0.67460    0.52737    0.76317    1.000
    Si4040   Si       0.67846    0.53737    0.80483    1.000
    N4041    N        0.69349    0.60469    0.85892    1.000
    N4042    N        0.67816    0.59798    0.74609    1.000
    N4043    N        0.65844    0.70575    0.77608    1.000
    Si4044   Si       0.67069    0.68736    0.81408    1.000
    Si4045   Si       0.67014    0.74736    0.79589    1.000
    N4046    N        0.69206    0.72414    0.82660    1.000
    N4047    N        0.66442    0.51329    0.93430    1.000
    Si4048   Si       0.64683    0.60499    0.91850    1.000
    N4049    N        0.68202    0.58630    0.93570    1.000
    Si4050   Si       0.69350    0.54386    0.92105    1.000
    N4051    N        0.64597    0.64456    0.89985    1.000
    N4052    N        0.64676    0.66265    0.97723    1.000
    N4053    N        0.66527    0.70590    0.92432    1.000
    Si4054   Si       0.68083    0.66764    0.90932    1.000
    Si4055   Si       0.66274    0.74569    0.90160    1.000
    Si4056   Si       0.66599    0.78273    0.03384    1.000
    Si4057   Si       0.67482    0.85829    0.04547    1.000
    N4058    N        0.68301    0.81669    0.05410    1.000
    N4059    N        0.65703    0.86543    0.00645    1.000
    N4060    N        0.64187    0.86891    0.07277    1.000
    Si4061   Si       0.64207    0.00334    0.02304    1.000
    N4062    N        0.68156    0.98381    0.03303    1.000
    N4063    N        0.67120    0.98476    0.10996    1.000
    N4064    N        0.64176    0.75677    0.12151    1.000
    Si4065   Si       0.68416    0.76367    0.12649    1.000
    N4066    N        0.64688    0.84638    0.13870    1.000
    Si4067   Si       0.68348    0.83899    0.21739    1.000
    Si4068   Si       0.68837    0.83303    0.14490    1.000
    N4069    N        0.64114    0.83996    0.21230    1.000
    N4070    N        0.68955    0.79192    0.15874    1.000
    N4071    N        0.69516    0.79648    0.22505    1.000
    Si4072   Si       0.69221    0.76721    0.19393    1.000
    Si4073   Si       0.69159    0.90387    0.17549    1.000
    N4074    N        0.65307    0.95785    0.23249    1.000
    N4075    N        0.64903    0.90183    0.18204    1.000
    N4076    N        0.69350    0.92117    0.13477    1.000
    Si4077   Si       0.65853    0.94838    0.13163    1.000
    Si4078   Si       0.69222    0.94415    0.24210    1.000
    N4079    N        0.65070    0.83133    0.28245    1.000
    Si4080   Si       0.66776    0.77135    0.35606    1.000
    Si4081   Si       0.64924    0.78607    0.28599    1.000
    Si4082   Si       0.64228    0.86394    0.31046    1.000
    N4083    N        0.63373    0.77744    0.32571    1.000
    N4084    N        0.69582    0.91037    0.26873    1.000
    N4085    N        0.67563    0.88396    0.33444    1.000
    Si4086   Si       0.66420    0.99443    0.31825    1.000
    N4087    N        0.65734    0.95206    0.31716    1.000
    Si4088   Si       0.68594    0.91892    0.30900    1.000
    N4089    N        0.64764    0.80069    0.38112    1.000
    Si4090   Si       0.65638    0.83092    0.41154    1.000
    N4091    N        0.66005    0.80486    0.44562    1.000
    N4092    N        0.69215    0.85122    0.40351    1.000
    N4093    N        0.67361    0.88501    0.45788    1.000
    N4094    N        0.64765    0.98927    0.47448    1.000
    Si4095   Si       0.69194    0.95478    0.41523    1.000
    Si4096   Si       0.65337    0.89754    0.42303    1.000
    N4097    N        0.65498    0.97324    0.39996    1.000
    N4098    N        0.68688    0.91477    0.39782    1.000
    Si4099   Si       0.68942    0.98143    0.48838    1.000
    Si4100   Si       0.68705    0.91341    0.48636    1.000
    Si4101   Si       0.66225    0.85468    0.57321    1.000
    N4102    N        0.67079    0.83152    0.53655    1.000
    N4103    N        0.65941    0.77433    0.55444    1.000
    N4104    N        0.68452    0.85163    0.61061    1.000
    N4105    N        0.69488    0.77687    0.50245    1.000
    N4106    N        0.66847    0.78148    0.62122    1.000
    N4107    N        0.65645    0.89694    0.56712    1.000
    Si4108   Si       0.66268    0.93577    0.54468    1.000
    N4109    N        0.64913    0.92748    0.50363    1.000
    N4110    N        0.68939    0.96919    0.53042    1.000
    N4111    N        0.67692    0.00553    0.58415    1.000
    Si4112   Si       0.63446    0.99856    0.57550    1.000
    N4113    N        0.67207    0.77022    0.68758    1.000
    Si4114   Si       0.68377    0.80214    0.65614    1.000
    Si4115   Si       0.67302    0.85021    0.71838    1.000
    Si4116   Si       0.66651    0.86766    0.64867    1.000
    N4117    N        0.63998    0.82500    0.65261    1.000
    N4118    N        0.64328    0.87994    0.69076    1.000
    N4119    N        0.69655    0.84412    0.68031    1.000
    N4120    N        0.63620    0.82394    0.72335    1.000
    N4121    N        0.67287    0.88810    0.74434    1.000
    N4122    N        0.64338    0.94820    0.72091    1.000
    Si4123   Si       0.68598    0.96741    0.72191    1.000
    Si4124   Si       0.63627    0.90684    0.72720    1.000
    N4125    N        0.64763    0.83000    0.79207    1.000
    N4126    N        0.67115    0.77079    0.76018    1.000
    N4127    N        0.64860    0.83215    0.86700    1.000
    Si4128   Si       0.68944    0.84650    0.79056    1.000
    Si4129   Si       0.69234    0.84058    0.86840    1.000
    Si4130   Si       0.63992    0.80148    0.76150    1.000
    N4131    N        0.67242    0.00114    0.84980    1.000
    Si4132   Si       0.68318    0.96157    0.86461    1.000
    Si4133   Si       0.64203    0.89293    0.86518    1.000
    N4134    N        0.68915    0.88509    0.86636    1.000
    N4135    N        0.65364    0.78203    0.92372    1.000
    Si4136   Si       0.66142    0.76577    0.96566    1.000
    N4137    N        0.65226    0.79673    0.99503    1.000
    N4138    N        0.66111    0.98989    0.91583    1.000
    N4139    N        0.64339    0.97966    0.98367    1.000
    N4140    N        0.67376    0.90019    0.94093    1.000
    Si4141   Si       0.68690    0.88753    0.98005    1.000
    N4142    N        0.64729    0.93830    0.87169    1.000
    Si4143   Si       0.68383    0.96276    0.99513    1.000
    N4144    N        0.72791    0.04013    0.00795    1.000
    Si4145   Si       0.71737    0.11781    0.10823    1.000
    N4146    N        0.71435    0.02478    0.08256    1.000
    Si4147   Si       0.72278    0.05378    0.04943    1.000
    N4148    N        0.74829    0.11021    0.01203    1.000
    N4149    N        0.74398    0.08200    0.11777    1.000
    N4150    N        0.70200    0.13496    0.06965    1.000
    Si4151   Si       0.73939    0.21451    0.06787    1.000
    Si4152   Si       0.72822    0.14111    0.03466    1.000
    N4153    N        0.74716    0.15041    0.11632    1.000
    N4154    N        0.70242    0.15975    0.00372    1.000
    N4155    N        0.69709    0.20482    0.07861    1.000
    N4156    N        0.75106    0.23053    0.10666    1.000
    N4157    N        0.72445    0.07181    0.18469    1.000
    Si4158   Si       0.72923    0.10700    0.21065    1.000
    Si4159   Si       0.72281    0.03062    0.16822    1.000
    N4160    N        0.69482    0.12998    0.22077    1.000
    Si4161   Si       0.74761    0.16305    0.15809    1.000
    N4162    N        0.72314    0.24150    0.22389    1.000
    Si4163   Si       0.74807    0.21907    0.19115    1.000
    N4164    N        0.71765    0.18688    0.18118    1.000
    Si4165   Si       0.73145    0.25889    0.13062    1.000
    N4166    N        0.75108    0.25872    0.16991    1.000
    N4167    N        0.73675    0.08478    0.31258    1.000
    Si4168   Si       0.73982    0.07250    0.26906    1.000
    N4169    N        0.70044    0.07186    0.25347    1.000
    Si4170   Si       0.69997    0.09950    0.33045    1.000
    Si4171   Si       0.71883    0.17192    0.31177    1.000
    N4172    N        0.72992    0.18726    0.27345    1.000
    Si4173   Si       0.74757    0.21964    0.25394    1.000
    N4174    N        0.69375    0.20481    0.32812    1.000
    Si4175   Si       0.71432    0.01407    0.36959    1.000
    Si4176   Si       0.75081    0.06221    0.42128    1.000
    N4177    N        0.71151    0.06955    0.43760    1.000
    N4178    N        0.73892    0.04800    0.38112    1.000
    N4179    N        0.71622    0.01636    0.48988    1.000
    Si4180   Si       0.70628    0.06238    0.48393    1.000
    N4181    N        0.69949    0.10621    0.37338    1.000
    N4182    N        0.75252    0.06958    0.49318    1.000
    Si4183   Si       0.75179    0.18062    0.37633    1.000
    N4184    N        0.71090    0.17045    0.37993    1.000
    N4185    N        0.71650    0.10165    0.59167    1.000
    N4186    N        0.72401    0.03694    0.60821    1.000
    Si4187   Si       0.69616    0.06398    0.58760    1.000
    N4188    N        0.69921    0.10575    0.49291    1.000
    N4189    N        0.71890    0.17126    0.61053    1.000
    N4190    N        0.73709    0.22700    0.52297    1.000
    N4191    N        0.72621    0.24601    0.59335    1.000
    N4192    N        0.72670    0.15062    0.54678    1.000
    Si4193   Si       0.70151    0.14241    0.58174    1.000
    Si4194   Si       0.70924    0.21264    0.61663    1.000
    Si4195   Si       0.71569    0.14417    0.50393    1.000
    N4196    N        0.70386    0.07397    0.69829    1.000
    Si4197   Si       0.73810    0.10198    0.68294    1.000
    Si4198   Si       0.70220    0.03222    0.68894    1.000
    N4199    N        0.74369    0.02294    0.67968    1.000
    Si4200   Si       0.73953    0.16929    0.64854    1.000
    N4201    N        0.71917    0.13903    0.67323    1.000
    Si4202   Si       0.75299    0.23923    0.68161    1.000
    N4203    N        0.73041    0.21329    0.65421    1.000
    N4204    N        0.73102    0.24280    0.71804    1.000
    N4205    N        0.74315    0.12463    0.77494    1.000
    N4206    N        0.71896    0.00938    0.80255    1.000
    Si4207   Si       0.73303    0.08666    0.75148    1.000
    N4208    N        0.70810    0.18759    0.76724    1.000
    Si4209   Si       0.71740    0.15419    0.79339    1.000
    Si4210   Si       0.71246    0.19888    0.84682    1.000
    N4211    N        0.73461    0.16418    0.83238    1.000
    Si4212   Si       0.73042    0.22511    0.75781    1.000
    Si4213   Si       0.74788    0.24776    0.86753    1.000
    N4214    N        0.74632    0.22611    0.83023    1.000
    N4215    N        0.71424    0.26062    0.78036    1.000
    N4216    N        0.75211    0.06052    0.94889    1.000
    N4217    N        0.72050    0.02310    0.90599    1.000
    Si4218   Si       0.73255    0.07724    0.98458    1.000
    Si4219   Si       0.72916    0.06390    0.91207    1.000
    N4220    N        0.75530    0.09422    0.89342    1.000
    N4221    N        0.72470    0.14598    0.93261    1.000
    Si4222   Si       0.72369    0.23917    0.93028    1.000
    Si4223   Si       0.72515    0.17238    0.96915    1.000
    N4224    N        0.70028    0.20409    0.94790    1.000
    N4225    N        0.72274    0.21773    0.89031    1.000
    Si4226   Si       0.72308    0.30212    0.07144    1.000
    N4227    N        0.73868    0.29794    0.11143    1.000
    N4228    N        0.70490    0.26606    0.05674    1.000
    N4229    N        0.72845    0.41826    0.05450    1.000
    N4230    N        0.72351    0.49482    0.05049    1.000
    Si4231   Si       0.74642    0.45969    0.05572    1.000
    N4232    N        0.72063    0.35844    0.13867    1.000
    Si4233   Si       0.73057    0.27849    0.20390    1.000
    N4234    N        0.69772    0.29616    0.18194    1.000
    N4235    N        0.75541    0.30105    0.23067    1.000
    N4236    N        0.73510    0.44933    0.21637    1.000
    Si4237   Si       0.70746    0.48500    0.21959    1.000
    N4238    N        0.72757    0.43139    0.15475    1.000
    Si4239   Si       0.74758    0.41059    0.23087    1.000
    Si4240   Si       0.72123    0.39089    0.16735    1.000
    N4241    N        0.70191    0.49166    0.17230    1.000
    N4242    N        0.73045    0.31885    0.30174    1.000
    Si4243   Si       0.73676    0.29968    0.34037    1.000
    N4244    N        0.70804    0.26798    0.34824    1.000
    N4245    N        0.72685    0.32702    0.37179    1.000
    Si4246   Si       0.75173    0.29524    0.27334    1.000
    Si4247   Si       0.69105    0.34276    0.30133    1.000
    N4248    N        0.70106    0.38059    0.31910    1.000
    N4249    N        0.73883    0.44016    0.30089    1.000
    Si4250   Si       0.70471    0.41440    0.29212    1.000
    Si4251   Si       0.70238    0.39741    0.36013    1.000
    N4252    N        0.71109    0.39705    0.25291    1.000
    N4253    N        0.73229    0.33920    0.43808    1.000
    N4254    N        0.74057    0.28509    0.48414    1.000
    Si4255   Si       0.69999    0.27572    0.46275    1.000
    Si4256   Si       0.69612    0.34604    0.46272    1.000
    Si4257   Si       0.74849    0.35234    0.39998    1.000
    N4258    N        0.71692    0.26173    0.42476    1.000
    N4259    N        0.69925    0.42949    0.48399    1.000
    N4260    N        0.72240    0.49659    0.37698    1.000
    N4261    N        0.71169    0.50160    0.45623    1.000
    N4262    N        0.72266    0.44238    0.41891    1.000
    Si4263   Si       0.72113    0.45924    0.45936    1.000
    N4264    N        0.74087    0.39126    0.38163    1.000
    Si4265   Si       0.69554    0.46527    0.39231    1.000
    Si4266   Si       0.71225    0.28584    0.58663    1.000
    Si4267   Si       0.73212    0.31466    0.51689    1.000
    N4268    N        0.70598    0.29370    0.54511    1.000
    N4269    N        0.74456    0.31498    0.59896    1.000
    N4270    N        0.70506    0.34856    0.50549    1.000
    N4271    N        0.71747    0.38089    0.60820    1.000
    N4272    N        0.71407    0.40267    0.54566    1.000
    Si4273   Si       0.72346    0.41669    0.58483    1.000
    N4274    N        0.73380    0.46647    0.54249    1.000
    Si4275   Si       0.73291    0.42504    0.51254    1.000
    N4276    N        0.69717    0.45120    0.59172    1.000
    Si4277   Si       0.69540    0.48071    0.55808    1.000
    N4278    N        0.75139    0.48936    0.61516    1.000
    Si4279   Si       0.73275    0.34384    0.62843    1.000
    N4280    N        0.71164    0.28120    0.66990    1.000
    N4281    N        0.74838    0.30695    0.72812    1.000
    Si4282   Si       0.74657    0.30298    0.68503    1.000
    N4283    N        0.75251    0.34139    0.66522    1.000
    Si4284   Si       0.74674    0.41357    0.74519    1.000
    Si4285   Si       0.70162    0.45019    0.69857    1.000
    Si4286   Si       0.71286    0.47478    0.62625    1.000
    N4287    N        0.70590    0.44510    0.65562    1.000
    N4288    N        0.73881    0.44582    0.71637    1.000
    Si4289   Si       0.72183    0.35929    0.78194    1.000
    N4290    N        0.71813    0.27849    0.85621    1.000
    N4291    N        0.71337    0.37122    0.82280    1.000
    Si4292   Si       0.74350    0.36882    0.85568    1.000
    Si4293   Si       0.71266    0.29199    0.74886    1.000
    Si4294   Si       0.69470    0.26163    0.81918    1.000
    N4295    N        0.69673    0.32613    0.77575    1.000
    Si4296   Si       0.69516    0.49901    0.86670    1.000
    N4297    N        0.71122    0.38882    0.75286    1.000
    Si4298   Si       0.70409    0.47346    0.79356    1.000
    N4299    N        0.74115    0.48739    0.77845    1.000
    N4300    N        0.72098    0.44206    0.81660    1.000
    Si4301   Si       0.69998    0.41133    0.83513    1.000
    N4302    N        0.71218    0.28023    0.92431    1.000
    Si4303   Si       0.70595    0.30456    0.88933    1.000
    N4304    N        0.73701    0.33745    0.88513    1.000
    Si4305   Si       0.72642    0.30428    0.95841    1.000
    N4306    N        0.72362    0.27757    0.99317    1.000
    Si4307   Si       0.69826    0.37614    0.98145    1.000
    N4308    N        0.72327    0.40585    0.87138    1.000
    Si4309   Si       0.71897    0.42664    0.95617    1.000
    Si4310   Si       0.74437    0.44247    0.88359    1.000
    Si4311   Si       0.74000    0.48691    0.93613    1.000
    N4312    N        0.72603    0.48107    0.89222    1.000
    N4313    N        0.70913    0.46882    0.96320    1.000
    N4314    N        0.73577    0.39794    0.98361    1.000
    N4315    N        0.74977    0.43367    0.92588    1.000
    Si4316   Si       0.72230    0.53092    0.02579    1.000
    Si4317   Si       0.71272    0.56620    0.09434    1.000
    N4318    N        0.70618    0.56269    0.05121    1.000
    N4319    N        0.70549    0.61733    0.00073    1.000
    N4320    N        0.70403    0.52665    0.11109    1.000
    N4321    N        0.72065    0.62624    0.06509    1.000
    N4322    N        0.75266    0.58051    0.10031    1.000
    Si4323   Si       0.75316    0.61909    0.99795    1.000
    N4324    N        0.71856    0.70129    0.06772    1.000
    Si4325   Si       0.72898    0.72987    0.09727    1.000
    Si4326   Si       0.71916    0.71670    0.02682    1.000
    N4327    N        0.75478    0.73665    0.00929    1.000
    Si4328   Si       0.69889    0.66242    0.07221    1.000
    N4329    N        0.70710    0.68732    0.99670    1.000
    N4330    N        0.73447    0.55377    0.16622    1.000
    N4331    N        0.73171    0.62065    0.15397    1.000
    N4332    N        0.72618    0.52154    0.23124    1.000
    Si4333   Si       0.69739    0.53200    0.15448    1.000
    N4334    N        0.74229    0.64804    0.22505    1.000
    Si4335   Si       0.73635    0.65287    0.18233    1.000
    N4336    N        0.70063    0.72216    0.13253    1.000
    N4337    N        0.73211    0.74449    0.19111    1.000
    N4338    N        0.69943    0.67701    0.18278    1.000
    Si4339   Si       0.72457    0.71053    0.16588    1.000
    N4340    N        0.71356    0.56110    0.35258    1.000
    Si4341   Si       0.73364    0.53986    0.27055    1.000
    N4342    N        0.72005    0.58101    0.27688    1.000
    Si4343   Si       0.73116    0.61136    0.30494    1.000
    Si4344   Si       0.70705    0.51852    0.34271    1.000
    N4345    N        0.72753    0.51308    0.30370    1.000
    N4346    N        0.69602    0.62295    0.33050    1.000
    N4347    N        0.73770    0.64981    0.28606    1.000
    Si4348   Si       0.74043    0.69360    0.30346    1.000
    Si4349   Si       0.70879    0.65365    0.25090    1.000
    N4350    N        0.74777    0.73764    0.30905    1.000
    N4351    N        0.69555    0.69440    0.31294    1.000
    Si4352   Si       0.74537    0.52631    0.45474    1.000
    N4353    N        0.70644    0.60967    0.41633    1.000
    N4354    N        0.73709    0.56893    0.46437    1.000
    Si4355   Si       0.74418    0.59604    0.43146    1.000
    N4356    N        0.75133    0.67818    0.40864    1.000
    Si4357   Si       0.71631    0.65368    0.41822    1.000
    N4358    N        0.72916    0.73847    0.39164    1.000
    N4359    N        0.69865    0.67312    0.38080    1.000
    Si4360   Si       0.73454    0.69942    0.37609    1.000
    N4361    N        0.73759    0.71879    0.46444    1.000
    Si4362   Si       0.72226    0.74263    0.43307    1.000
    N4363    N        0.69616    0.66420    0.45436    1.000
    Si4364   Si       0.69593    0.70449    0.47296    1.000
    Si4365   Si       0.70815    0.55296    0.54722    1.000
    Si4366   Si       0.70561    0.60416    0.59959    1.000
    N4367    N        0.74533    0.58741    0.60264    1.000
    N4368    N        0.73269    0.62921    0.55255    1.000
    N4369    N        0.74874    0.56462    0.53924    1.000
    N4370    N        0.69893    0.52072    0.57514    1.000
    N4371    N        0.72726    0.69507    0.56956    1.000
    Si4372   Si       0.74623    0.73296    0.57765    1.000
    N4373    N        0.70060    0.64663    0.61347    1.000
    Si4374   Si       0.75421    0.66819    0.55085    1.000
    N4375    N        0.73566    0.56343    0.74207    1.000
    Si4376   Si       0.71007    0.58001    0.66905    1.000
    N4377    N        0.70734    0.62189    0.67947    1.000
    Si4378   Si       0.69379    0.55871    0.73721    1.000
    Si4379   Si       0.70197    0.65861    0.65519    1.000
    N4380    N        0.70192    0.71719    0.72271    1.000
    N4381    N        0.72114    0.65540    0.74076    1.000
    Si4382   Si       0.73342    0.68865    0.71468    1.000
    N4383    N        0.73575    0.68264    0.67263    1.000
    N4384    N        0.71583    0.56074    0.81162    1.000
    Si4385   Si       0.71918    0.56911    0.85370    1.000
    Si4386   Si       0.74510    0.57199    0.78339    1.000
    N4387    N        0.75371    0.61386    0.78824    1.000
    Si4388   Si       0.71250    0.64288    0.85087    1.000
    Si4389   Si       0.73242    0.65121    0.78180    1.000
    Si4390   Si       0.71741    0.71748    0.86033    1.000
    N4391    N        0.70076    0.65570    0.81005    1.000
    Si4392   Si       0.71025    0.60867    0.95782    1.000
    N4393    N        0.73032    0.53066    0.94007    1.000
    N4394    N        0.74872    0.59089    0.96398    1.000
    N4395    N        0.69589    0.54038    0.87688    1.000
    N4396    N        0.70688    0.74915    0.89105    1.000
    N4397    N        0.74759    0.70717    0.93998    1.000
    N4398    N        0.70873    0.64916    0.93990    1.000
    Si4399   Si       0.72715    0.74201    0.93089    1.000
    N4400    N        0.70417    0.67742    0.87503    1.000
    Si4401   Si       0.73423    0.67545    0.96593    1.000
    Si4402   Si       0.71762    0.81157    0.08091    1.000
    N4403    N        0.71462    0.77120    0.09443    1.000
    Si4404   Si       0.73759    0.84511    0.01098    1.000
    N4405    N        0.71567    0.87233    0.03806    1.000
    N4406    N        0.74743    0.80352    0.01278    1.000
    N4407    N        0.71746    0.84007    0.11457    1.000
    Si4408   Si       0.72927    0.76945    0.99731    1.000
    N4409    N        0.71713    0.93901    0.07513    1.000
    Si4410   Si       0.72420    0.91484    0.03835    1.000
    Si4411   Si       0.70963    0.98273    0.06518    1.000
    N4412    N        0.74459    0.98251    0.03639    1.000
    Si4413   Si       0.73207    0.92793    0.11701    1.000
    N4414    N        0.69942    0.92306    0.00367    1.000
    N4415    N        0.76041    0.89378    0.11113    1.000
    N4416    N        0.71647    0.85066    0.24361    1.000
    N4417    N        0.69911    0.85862    0.17974    1.000
    Si4418   Si       0.73682    0.96333    0.18726    1.000
    N4419    N        0.71713    0.00248    0.19962    1.000
    N4420    N        0.70960    0.93343    0.20169    1.000
    N4421    N        0.75052    0.95587    0.14699    1.000
    Si4422   Si       0.74038    0.00015    0.23723    1.000
    N4423    N        0.70931    0.78079    0.34813    1.000
    N4424    N        0.74047    0.80422    0.28723    1.000
    Si4425   Si       0.72051    0.77030    0.30774    1.000
    N4426    N        0.74959    0.87660    0.29855    1.000
    N4427    N        0.73865    0.87754    0.36113    1.000
    Si4428   Si       0.74483    0.77519    0.37134    1.000
    Si4429   Si       0.73131    0.80877    0.24533    1.000
    Si4430   Si       0.69677    0.88155    0.37301    1.000
    Si4431   Si       0.73165    0.88608    0.26189    1.000
    N4432    N        0.70532    0.99927    0.32960    1.000
    N4433    N        0.71777    0.97299    0.26357    1.000
    Si4434   Si       0.73167    0.97329    0.30507    1.000
    N4435    N        0.72207    0.93614    0.32310    1.000
    Si4436   Si       0.75203    0.90632    0.33148    1.000
    N4437    N        0.71280    0.83690    0.47483    1.000
    Si4438   Si       0.70876    0.86396    0.44142    1.000
    N4439    N        0.73016    0.78151    0.44292    1.000
    Si4440   Si       0.69831    0.79805    0.46523    1.000
    N4441    N        0.72226    0.98153    0.39781    1.000
    N4442    N        0.74006    0.89455    0.44596    1.000
    N4443    N        0.70329    0.94890    0.46348    1.000
    Si4444   Si       0.74714    0.93253    0.46586    1.000
    N4445    N        0.73403    0.82529    0.54415    1.000
    Si4446   Si       0.70911    0.84941    0.51615    1.000
    Si4447   Si       0.71954    0.87944    0.61205    1.000
    N4448    N        0.71645    0.76468    0.57116    1.000
    Si4449   Si       0.69996    0.79372    0.54203    1.000
    N4450    N        0.73666    0.89867    0.57586    1.000
    N4451    N        0.70900    0.89201    0.51518    1.000
    Si4452   Si       0.74580    0.90691    0.53530    1.000
    N4453    N        0.74515    0.00627    0.55071    1.000
    Si4454   Si       0.69841    0.00280    0.62211    1.000
    N4455    N        0.72128    0.96531    0.61788    1.000
    Si4456   Si       0.69978    0.00954    0.54711    1.000
    N4457    N        0.75530    0.94074    0.50982    1.000
    Si4458   Si       0.73709    0.83506    0.67185    1.000
    N4459    N        0.72795    0.79458    0.65753    1.000
    N4460    N        0.73534    0.77404    0.72630    1.000
    Si4461   Si       0.73975    0.81466    0.73977    1.000
    N4462    N        0.74983    0.85507    0.63547    1.000
    N4463    N        0.75919    0.84014    0.70940    1.000
    Si4464   Si       0.72169    0.93592    0.65079    1.000
    N4465    N        0.69592    0.90282    0.64251    1.000
    N4466    N        0.71757    0.95813    0.68853    1.000
    N4467    N        0.74779    0.90620    0.73612    1.000
    Si4468   Si       0.75172    0.98418    0.69696    1.000
    N4469    N        0.70661    0.82853    0.82733    1.000
    Si4470   Si       0.74739    0.81870    0.82049    1.000
    N4471    N        0.70216    0.83110    0.74990    1.000
    N4472    N        0.75608    0.78668    0.84976    1.000
    N4473    N        0.71093    0.88449    0.79678    1.000
    Si4474   Si       0.70941    0.90635    0.75809    1.000
    Si4475   Si       0.71535    0.90282    0.83456    1.000
    Si4476   Si       0.71748    0.96629    0.79488    1.000
    N4477    N        0.75353    0.91291    0.85428    1.000
    N4478    N        0.70051    0.94931    0.75841    1.000
    N4479    N        0.75583    0.94583    0.79305    1.000
    N4480    N        0.69870    0.94440    0.82731    1.000
    N4481    N        0.71585    0.85638    0.97382    1.000
    Si4482   Si       0.73287    0.78557    0.88711    1.000
    N4483    N        0.71583    0.82477    0.90126    1.000
    Si4484   Si       0.73485    0.84518    0.93481    1.000
    N4485    N        0.70413    0.76091    0.96201    1.000
    Si4486   Si       0.74060    0.99999    0.99508    1.000
    N4487    N        0.71226    0.95032    0.89672    1.000
    Si4488   Si       0.70277    0.90440    0.90504    1.000
    Si4489   Si       0.75301    0.94701    0.88267    1.000
    N4490    N        0.71398    0.97978    0.96670    1.000
    N4491    N        0.73843    0.88538    0.91804    1.000
    Si4492   Si       0.70571    0.98640    0.92349    1.000
    Si4493   Si       0.79620    0.08830    0.04686    1.000
    N4494    N        0.79769    0.01934    0.09917    1.000
    N4495    N        0.80342    0.12807    0.07103    1.000
    N4496    N        0.76462    0.05959    0.06011    1.000
    N4497    N        0.81126    0.10581    0.00820    1.000
    Si4498   Si       0.75610    0.04042    0.10064    1.000
    Si4499   Si       0.77887    0.15879    0.08869    1.000
    Si4500   Si       0.77615    0.19561    0.01848    1.000
    N4501    N        0.80680    0.18701    0.10638    1.000
    N4502    N        0.75944    0.23299    0.03359    1.000
    N4503    N        0.75633    0.17503    0.05208    1.000
    N4504    N        0.79628    0.07816    0.18002    1.000
    Si4505   Si       0.79383    0.10848    0.21271    1.000
    N4506    N        0.76053    0.09992    0.24093    1.000
    Si4507   Si       0.75825    0.08643    0.15900    1.000
    N4508    N        0.75392    0.01990    0.14043    1.000
    N4509    N        0.75514    0.12534    0.17977    1.000
    N4510    N        0.77503    0.20927    0.22416    1.000
    Si4511   Si       0.80468    0.18962    0.19804    1.000
    Si4512   Si       0.78508    0.21774    0.12926    1.000
    N4513    N        0.81150    0.25136    0.13911    1.000
    N4514    N        0.80774    0.14961    0.21576    1.000
    N4515    N        0.77713    0.19413    0.16303    1.000
    N4516    N        0.78822    0.03900    0.33020    1.000
    Si4517   Si       0.78819    0.02174    0.29037    1.000
    N4518    N        0.78954    0.09678    0.36499    1.000
    Si4519   Si       0.76127    0.06963    0.34569    1.000
    N4520    N        0.75412    0.03254    0.26300    1.000
    Si4521   Si       0.81512    0.01493    0.35631    1.000
    Si4522   Si       0.79513    0.18047    0.31581    1.000
    Si4523   Si       0.79210    0.24526    0.35703    1.000
    N4524    N        0.80295    0.22408    0.32100    1.000
    N4525    N        0.75688    0.17052    0.33360    1.000
    N4526    N        0.76139    0.25380    0.27960    1.000
    Si4527   Si       0.80452    0.25724    0.28991    1.000
    Si4528   Si       0.79308    0.12221    0.40206    1.000
    N4529    N        0.77065    0.09861    0.43283    1.000
    Si4530   Si       0.77246    0.10509    0.47758    1.000
    N4531    N        0.76451    0.02528    0.44044    1.000
    Si4532   Si       0.75884    0.02686    0.48447    1.000
    N4533    N        0.81437    0.11424    0.48661    1.000
    N4534    N        0.75396    0.21479    0.45701    1.000
    Si4535   Si       0.75478    0.24015    0.42211    1.000
    N4536    N        0.77277    0.16180    0.40846    1.000
    Si4537   Si       0.77111    0.17441    0.45253    1.000
    N4538    N        0.76393    0.22352    0.38228    1.000
    Si4539   Si       0.76130    0.24281    0.48974    1.000
    N4540    N        0.75288    0.14686    0.48244    1.000
    N4541    N        0.78199    0.06211    0.58958    1.000
    Si4542   Si       0.76160    0.02444    0.58718    1.000
    N4543    N        0.77856    0.12798    0.59178    1.000
    Si4544   Si       0.75713    0.09313    0.60604    1.000
    N4545    N        0.77813    0.20075    0.57461    1.000
    Si4546   Si       0.76614    0.15584    0.56066    1.000
    N4547    N        0.80191    0.24150    0.50372    1.000
    N4548    N        0.80553    0.15948    0.53737    1.000
    Si4549   Si       0.75399    0.23583    0.56224    1.000
    Si4550   Si       0.79719    0.11948    0.73091    1.000
    Si4551   Si       0.77101    0.03953    0.64881    1.000
    N4552    N        0.76131    0.09915    0.71884    1.000
    N4553    N        0.80850    0.04359    0.66928    1.000
    N4554    N        0.75453    0.08268    0.64803    1.000
    Si4555   Si       0.81035    0.13985    0.62058    1.000
    Si4556   Si       0.80126    0.20447    0.73496    1.000
    N4557    N        0.78055    0.16187    0.64717    1.000
    N4558    N        0.78818    0.21449    0.69433    1.000
    Si4559   Si       0.80526    0.19198    0.66377    1.000
    N4560    N        0.78061    0.10807    0.83241    1.000
    Si4561   Si       0.77673    0.10130    0.79176    1.000
    N4562    N        0.77517    0.03972    0.84736    1.000
    Si4563   Si       0.78332    0.07778    0.86525    1.000
    Si4564   Si       0.76002    0.02752    0.80690    1.000
    N4565    N        0.81242    0.10898    0.77077    1.000
    N4566    N        0.79734    0.00704    0.79151    1.000
    N4567    N        0.75643    0.06341    0.78091    1.000
    Si4568   Si       0.79672    0.00670    0.86823    1.000
    Si4569   Si       0.77291    0.14909    0.84495    1.000
    Si4570   Si       0.78034    0.21205    0.80783    1.000
    N4571    N        0.77133    0.20910    0.76596    1.000
    N4572    N        0.79866    0.17477    0.81989    1.000
    N4573    N        0.79011    0.12426    0.94560    1.000
    Si4574   Si       0.78436    0.03161    0.94743    1.000
    Si4575   Si       0.78115    0.12943    0.98741    1.000
    Si4576   Si       0.76137    0.13299    0.91404    1.000
    N4577    N        0.79463    0.00583    0.91215    1.000
    Si4578   Si       0.80161    0.23921    0.92302    1.000
    N4579    N        0.78988    0.24088    0.87972    1.000
    N4580    N        0.76539    0.17038    0.98650    1.000
    N4581    N        0.76434    0.23970    0.94558    1.000
    N4582    N        0.78498    0.15663    0.88491    1.000
    N4583    N        0.78205    0.35041    0.09778    1.000
    Si4584   Si       0.78474    0.34116    0.05458    1.000
    N4585    N        0.78632    0.37862    0.03043    1.000
    N4586    N        0.79671    0.27741    0.99966    1.000
    N4587    N        0.75867    0.30766    0.04564    1.000
    Si4588   Si       0.75726    0.27317    0.01992    1.000
    N4589    N        0.76864    0.45074    0.02007    1.000
    N4590    N        0.77031    0.46813    0.08933    1.000
    Si4591   Si       0.80531    0.49186    0.09324    1.000
    Si4592   Si       0.75522    0.40798    0.02008    1.000
    Si4593   Si       0.79084    0.35944    0.18238    1.000
    Si4594   Si       0.79737    0.30930    0.23305    1.000
    N4595    N        0.77944    0.32115    0.16274    1.000
    Si4596   Si       0.79197    0.28002    0.16576    1.000
    N4597    N        0.80719    0.34859    0.22091    1.000
    Si4598   Si       0.75608    0.33478    0.12708    1.000
    N4599    N        0.81255    0.27974    0.20500    1.000
    Si4600   Si       0.75402    0.45699    0.17842    1.000
    Si4601   Si       0.80898    0.48453    0.16834    1.000
    N4602    N        0.79581    0.44374    0.16920    1.000
    N4603    N        0.77161    0.49857    0.18625    1.000
    N4604    N        0.75581    0.38401    0.19491    1.000
    N4605    N        0.77878    0.28642    0.34389    1.000
    N4606    N        0.79668    0.30381    0.28019    1.000
    Si4607   Si       0.80849    0.31170    0.32169    1.000
    N4608    N        0.79642    0.47773    0.29703    1.000
    Si4609   Si       0.78024    0.43713    0.29001    1.000
    N4610    N        0.78536    0.41225    0.25428    1.000
    N4611    N        0.80475    0.41807    0.31960    1.000
    Si4612   Si       0.76184    0.30629    0.45114    1.000
    N4613    N        0.79308    0.34293    0.40052    1.000
    N4614    N        0.79107    0.33362    0.46972    1.000
    N4615    N        0.78329    0.27297    0.42890    1.000
    N4616    N        0.78487    0.42013    0.43225    1.000
    Si4617   Si       0.76446    0.49692    0.38596    1.000
    N4618    N        0.78057    0.45712    0.37765    1.000
    Si4619   Si       0.78466    0.42586    0.47388    1.000
    N4620    N        0.75647    0.45689    0.48388    1.000
    Si4621   Si       0.75854    0.42556    0.39986    1.000
    Si4622   Si       0.77787    0.31545    0.57224    1.000
    N4623    N        0.76763    0.33427    0.53389    1.000
    N4624    N        0.78102    0.27282    0.56261    1.000
    Si4625   Si       0.78879    0.35761    0.50538    1.000
    N4626    N        0.79314    0.48286    0.54392    1.000
    N4627    N        0.76547    0.42783    0.59167    1.000
    Si4628   Si       0.76798    0.47078    0.57812    1.000
    Si4629   Si       0.76155    0.48662    0.51536    1.000
    Si4630   Si       0.79995    0.42888    0.61859    1.000
    N4631    N        0.76715    0.39818    0.50161    1.000
    N4632    N        0.81074    0.46810    0.60184    1.000
    N4633    N        0.77653    0.27460    0.67182    1.000
    Si4634   Si       0.81290    0.37998    0.72866    1.000
    N4635    N        0.77416    0.39483    0.71871    1.000
    N4636    N        0.78472    0.41322    0.65697    1.000
    Si4637   Si       0.77777    0.43560    0.69520    1.000
    Si4638   Si       0.79144    0.49520    0.63103    1.000
    N4639    N        0.80381    0.45276    0.72551    1.000
    N4640    N        0.79369    0.47865    0.66946    1.000
    N4641    N        0.76598    0.35226    0.77787    1.000
    N4642    N        0.78354    0.37701    0.84006    1.000
    Si4643   Si       0.78382    0.32155    0.75095    1.000
    N4644    N        0.80776    0.29346    0.77181    1.000
    Si4645   Si       0.78905    0.38289    0.79795    1.000
    N4646    N        0.77152    0.41954    0.78091    1.000
    N4647    N        0.77381    0.45178    0.85321    1.000
    N4648    N        0.79977    0.47614    0.78854    1.000
    Si4649   Si       0.76288    0.45406    0.80999    1.000
    Si4650   Si       0.80903    0.43810    0.76615    1.000
    Si4651   Si       0.80617    0.37100    0.87656    1.000
    Si4652   Si       0.77087    0.33645    0.91224    1.000
    N4653    N        0.76664    0.31814    0.95081    1.000
    Si4654   Si       0.80628    0.30240    0.96559    1.000
    N4655    N        0.80410    0.32668    0.88623    1.000
    N4656    N        0.78492    0.37826    0.91281    1.000
    N4657    N        0.77775    0.49033    0.95815    1.000
    Si4658   Si       0.79715    0.46805    0.99245    1.000
    Si4659   Si       0.78874    0.41580    0.93338    1.000
    N4660    N        0.81098    0.49517    0.89309    1.000
    Si4661   Si       0.81193    0.45715    0.87353    1.000
    Si4662   Si       0.81230    0.50560    0.93555    1.000
    N4663    N        0.77363    0.60736    0.03372    1.000
    Si4664   Si       0.79694    0.53492    0.02882    1.000
    N4665    N        0.79903    0.53256    0.07395    1.000
    N4666    N        0.76038    0.53708    0.00705    1.000
    Si4667   Si       0.76202    0.61706    0.07573    1.000
    Si4668   Si       0.81152    0.56277    0.10157    1.000
    Si4669   Si       0.79694    0.73107    0.01094    1.000
    N4670    N        0.77719    0.65315    0.09699    1.000
    N4671    N        0.77007    0.72463    0.11264    1.000
    N4672    N        0.81174    0.69336    0.02707    1.000
    N4673    N        0.78958    0.55986    0.20965    1.000
    N4674    N        0.79934    0.57490    0.14301    1.000
    Si4675   Si       0.75620    0.58448    0.14431    1.000
    Si4676   Si       0.75413    0.53521    0.19998    1.000
    Si4677   Si       0.80241    0.75072    0.12860    1.000
    Si4678   Si       0.78759    0.68503    0.12953    1.000
    N4679    N        0.75944    0.68410    0.16336    1.000
    N4680    N        0.80044    0.73623    0.21508    1.000
    N4681    N        0.77848    0.53774    0.27462    1.000
    N4682    N        0.76601    0.59967    0.32586    1.000
    N4683    N        0.77443    0.52686    0.34822    1.000
    Si4684   Si       0.75712    0.56901    0.35701    1.000
    N4685    N        0.80475    0.63396    0.25289    1.000
    Si4686   Si       0.77105    0.51103    0.30797    1.000
    Si4687   Si       0.80876    0.54698    0.24625    1.000
    N4688    N        0.76083    0.68456    0.34477    1.000
    Si4689   Si       0.78898    0.74431    0.31692    1.000
    N4690    N        0.77789    0.69638    0.27100    1.000
    Si4691   Si       0.77018    0.65808    0.25636    1.000
    Si4692   Si       0.80380    0.68313    0.35281    1.000
    Si4693   Si       0.80972    0.72225    0.25543    1.000
    N4694    N        0.76251    0.63122    0.44615    1.000
    Si4695   Si       0.80700    0.58869    0.40096    1.000
    N4696    N        0.76476    0.58014    0.39772    1.000
    N4697    N        0.77211    0.51501    0.42370    1.000
    N4698    N        0.76804    0.52080    0.49098    1.000
    Si4699   Si       0.79026    0.66719    0.42091    1.000
    N4700    N        0.80139    0.67917    0.46420    1.000
    N4701    N        0.79726    0.74588    0.48774    1.000
    N4702    N        0.81177    0.69563    0.39372    1.000
    Si4703   Si       0.77317    0.70965    0.48464    1.000
    Si4704   Si       0.77776    0.64439    0.48280    1.000
    N4705    N        0.80328    0.60245    0.56758    1.000
    Si4706   Si       0.76104    0.59742    0.56227    1.000
    Si4707   Si       0.77689    0.56297    0.50360    1.000
    N4708    N        0.78942    0.60723    0.50271    1.000
    N4709    N        0.77972    0.73611    0.55027    1.000
    N4710    N        0.79220    0.67098    0.56773    1.000
    N4711    N        0.75893    0.67281    0.50827    1.000
    N4712    N        0.75288    0.73252    0.62169    1.000
    Si4713   Si       0.81278    0.70684    0.55692    1.000
    N4714    N        0.80113    0.53949    0.63158    1.000
    Si4715   Si       0.77115    0.55868    0.71453    1.000
    Si4716   Si       0.77387    0.57389    0.63453    1.000
    N4717    N        0.78956    0.52067    0.72804    1.000
    N4718    N        0.80347    0.59085    0.71550    1.000
    N4719    N        0.80143    0.60792    0.63706    1.000
    N4720    N        0.75431    0.56961    0.67351    1.000
    N4721    N        0.78290    0.74368    0.67765    1.000
    Si4722   Si       0.76604    0.74457    0.71950    1.000
    Si4723   Si       0.76933    0.70599    0.65266    1.000
    N4724    N        0.76930    0.70390    0.73309    1.000
    N4725    N        0.80817    0.68680    0.64524    1.000
    N4726    N        0.78022    0.54669    0.78974    1.000
    N4727    N        0.80432    0.59699    0.83290    1.000
    Si4728   Si       0.77623    0.50951    0.76737    1.000
    Si4729   Si       0.78209    0.60361    0.87026    1.000
    N4730    N        0.75855    0.56917    0.87223    1.000
    Si4731   Si       0.78931    0.63535    0.80653    1.000
    Si4732   Si       0.78653    0.70712    0.77334    1.000
    N4733    N        0.77514    0.74478    0.79432    1.000
    N4734    N        0.76737    0.67446    0.79527    1.000
    Si4735   Si       0.77614    0.74975    0.83751    1.000
    Si4736   Si       0.77764    0.67501    0.86077    1.000
    N4737    N        0.75918    0.71358    0.85559    1.000
    N4738    N        0.75529    0.63750    0.85729    1.000
    N4739    N        0.81179    0.66197    0.83784    1.000
    Si4740   Si       0.76268    0.55045    0.96388    1.000
    N4741    N        0.80317    0.54898    0.94701    1.000
    N4742    N        0.80854    0.60798    0.90498    1.000
    Si4743   Si       0.78927    0.70832    0.92717    1.000
    N4744    N        0.76919    0.65511    0.98343    1.000
    N4745    N        0.80449    0.71204    0.96939    1.000
    N4746    N        0.79331    0.67360    0.90214    1.000
    Si4747   Si       0.80853    0.67190    0.98694    1.000
    Si4748   Si       0.78466    0.81349    0.03704    1.000
    N4749    N        0.78439    0.85246    0.01258    1.000
    Si4750   Si       0.76078    0.84951    0.10898    1.000
    N4751    N        0.80638    0.76678    0.03347    1.000
    N4752    N        0.75899    0.82500    0.07132    1.000
    Si4753   Si       0.80108    0.88801    0.03484    1.000
    Si4754   Si       0.77564    0.95595    0.05025    1.000
    N4755    N        0.78837    0.95663    0.09283    1.000
    N4756    N        0.76864    0.91819    0.03482    1.000
    Si4757   Si       0.79673    0.91357    0.10154    1.000
    N4758    N        0.81333    0.97631    0.03755    1.000
    N4759    N        0.81837    0.88820    0.07338    1.000
    Si4760   Si       0.77214    0.76162    0.19507    1.000
    N4761    N        0.80076    0.83886    0.12367    1.000
    Si4762   Si       0.79089    0.85896    0.23048    1.000
    N4763    N        0.79907    0.85567    0.18900    1.000
    N4764    N        0.76818    0.79629    0.22318    1.000
    N4765    N        0.78909    0.78009    0.15898    1.000
    Si4766   Si       0.80817    0.81970    0.16166    1.000
    Si4767   Si       0.78056    0.98466    0.12899    1.000
    Si4768   Si       0.80747    0.97148    0.19461    1.000
    Si4769   Si       0.80667    0.91795    0.24391    1.000
    N4770    N        0.77036    0.97847    0.21326    1.000
    N4771    N        0.76891    0.89613    0.24055    1.000
    N4772    N        0.79114    0.84298    0.33691    1.000
    N4773    N        0.79463    0.83482    0.26757    1.000
    Si4774   Si       0.76690    0.83669    0.30248    1.000
    Si4775   Si       0.80077    0.79317    0.25201    1.000
    N4776    N        0.78636    0.76529    0.35575    1.000
    N4777    N        0.80453    0.76021    0.27883    1.000
    N4778    N        0.79097    0.92562    0.34264    1.000
    N4779    N        0.77278    0.97930    0.29766    1.000
    Si4780   Si       0.80566    0.95505    0.31431    1.000
    Si4781   Si       0.77050    0.85209    0.37298    1.000
    Si4782   Si       0.76733    0.80250    0.43100    1.000
    N4783    N        0.78438    0.83479    0.45490    1.000
    N4784    N        0.80318    0.77807    0.42452    1.000
    Si4785   Si       0.77992    0.87627    0.44161    1.000
    N4786    N        0.79266    0.87880    0.39929    1.000
    N4787    N        0.75786    0.81399    0.39081    1.000
    N4788    N        0.80379    0.90479    0.46324    1.000
    N4789    N        0.79494    0.99408    0.38746    1.000
    N4790    N        0.77237    0.95788    0.43980    1.000
    Si4791   Si       0.76180    0.98930    0.41379    1.000
    Si4792   Si       0.77441    0.83637    0.54445    1.000
    N4793    N        0.79530    0.80880    0.51964    1.000
    N4794    N        0.80123    0.84180    0.58045    1.000
    Si4795   Si       0.80020    0.76666    0.52643    1.000
    N4796    N        0.77562    0.87645    0.52142    1.000
    Si4797   Si       0.78787    0.83790    0.62157    1.000
    N4798    N        0.78234    0.95637    0.57064    1.000
    Si4799   Si       0.76946    0.97517    0.53259    1.000
    Si4800   Si       0.76442    0.96220    0.60995    1.000
    N4801    N        0.78990    0.00102    0.50247    1.000
    Si4802   Si       0.81137    0.89404    0.50459    1.000
    N4803    N        0.77944    0.00307    0.62182    1.000
    N4804    N        0.79240    0.79684    0.63292    1.000
    N4805    N        0.80200    0.76362    0.73553    1.000
    Si4806   Si       0.77846    0.87777    0.72185    1.000
    Si4807   Si       0.76260    0.76869    0.64516    1.000
    N4808    N        0.80300    0.89114    0.68980    1.000
    N4809    N        0.76022    0.98186    0.73813    1.000
    N4810    N        0.79393    0.96985    0.68285    1.000
    Si4811   Si       0.80144    0.93045    0.66675    1.000
    N4812    N        0.76608    0.92820    0.64073    1.000
    Si4813   Si       0.79096    0.77918    0.77323    1.000
    N4814    N        0.77894    0.84898    0.82409    1.000
    N4815    N        0.80231    0.87493    0.75971    1.000
    Si4816   Si       0.79488    0.84118    0.78345    1.000
    Si4817   Si       0.80675    0.87545    0.84496    1.000
    N4818    N        0.76105    0.81255    0.77728    1.000
    Si4819   Si       0.77805    0.93671    0.82691    1.000
    N4820    N        0.77541    0.97123    0.85402    1.000
    Si4821   Si       0.80005    0.98871    0.75361    1.000
    N4822    N        0.80933    0.94477    0.75422    1.000
    Si4823   Si       0.76484    0.94095    0.75180    1.000
    N4824    N        0.80984    0.90998    0.81854    1.000
    N4825    N        0.80507    0.87606    0.88917    1.000
    Si4826   Si       0.79499    0.79253    0.93171    1.000
    Si4827   Si       0.80031    0.85170    0.97281    1.000
    N4828    N        0.77644    0.83003    0.94482    1.000
    N4829    N        0.75888    0.77133    0.92049    1.000
    Si4830   Si       0.78109    0.89533    0.91974    1.000
    N4831    N        0.78079    0.00725    0.98264    1.000
    N4832    N        0.78222    0.93900    0.91248    1.000
    N4833    N        0.79750    0.89246    0.95998    1.000
    Si4834   Si       0.84306    0.11134    0.07980    1.000
    N4835    N        0.83535    0.07133    0.05842    1.000
    Si4836   Si       0.85174    0.11996    0.00481    1.000
    Si4837   Si       0.86466    0.03857    0.04123    1.000
    N4838    N        0.85874    0.01532    0.07891    1.000
    N4839    N        0.83214    0.08896    0.11704    1.000
    Si4840   Si       0.83371    0.04661    0.09805    1.000
    N4841    N        0.85111    0.02273    0.00325    1.000
    N4842    N        0.86845    0.13178    0.04478    1.000
    Si4843   Si       0.84041    0.24904    0.10675    1.000
    N4844    N        0.82248    0.24997    0.06842    1.000
    Si4845   Si       0.82086    0.25005    0.02449    1.000
    N4846    N        0.81690    0.20923    0.00851    1.000
    N4847    N        0.86978    0.21716    0.11246    1.000
    N4848    N        0.86789    0.14325    0.10377    1.000
    N4849    N        0.85292    0.03708    0.14179    1.000
    Si4850   Si       0.83462    0.07541    0.15821    1.000
    N4851    N        0.86510    0.09635    0.17618    1.000
    N4852    N        0.83612    0.10181    0.23983    1.000
    Si4853   Si       0.85339    0.01416    0.24391    1.000
    Si4854   Si       0.84606    0.18028    0.12181    1.000
    Si4855   Si       0.84295    0.25257    0.21859    1.000
    N4856    N        0.85350    0.16528    0.16398    1.000
    N4857    N        0.84269    0.21329    0.20377    1.000
    Si4858   Si       0.84437    0.07534    0.27351    1.000
    N4859    N        0.82447    0.09736    0.30574    1.000
    N4860    N        0.82658    0.03390    0.27335    1.000
    Si4861   Si       0.82585    0.08264    0.34718    1.000
    N4862    N        0.86132    0.11200    0.35151    1.000
    Si4863   Si       0.84169    0.13555    0.31655    1.000
    Si4864   Si       0.85277    0.19743    0.36361    1.000
    N4865    N        0.82757    0.16983    0.34336    1.000
    N4866    N        0.81813    0.15931    0.28413    1.000
    N4867    N        0.83905    0.25137    0.26191    1.000
    Si4868   Si       0.83652    0.14495    0.24842    1.000
    N4869    N        0.84008    0.04817    0.37037    1.000
    N4870    N        0.84890    0.03610    0.46612    1.000
    N4871    N        0.83297    0.12565    0.41680    1.000
    Si4872   Si       0.86791    0.12992    0.39083    1.000
    N4873    N        0.84711    0.23984    0.44874    1.000
    Si4874   Si       0.83520    0.14130    0.45870    1.000
    N4875    N        0.83296    0.24329    0.37865    1.000
    Si4876   Si       0.82892    0.21674    0.47969    1.000
    N4877    N        0.81264    0.17870    0.46427    1.000
    N4878    N        0.83639    0.09570    0.55810    1.000
    N4879    N        0.84779    0.03521    0.59982    1.000
    Si4880   Si       0.82330    0.07368    0.59344    1.000
    Si4881   Si       0.82671    0.12363    0.52672    1.000
    N4882    N        0.86998    0.13203    0.51960    1.000
    Si4883   Si       0.81942    0.19140    0.56563    1.000
    N4884    N        0.83662    0.16710    0.59622    1.000
    N4885    N        0.83984    0.23155    0.56368    1.000
    Si4886   Si       0.84341    0.24382    0.60523    1.000
    N4887    N        0.86710    0.21172    0.49979    1.000
    N4888    N        0.87241    0.06332    0.66604    1.000
    N4889    N        0.82590    0.10111    0.62889    1.000
    Si4890   Si       0.83296    0.08229    0.66756    1.000
    N4891    N        0.82767    0.10744    0.70174    1.000
    Si4892   Si       0.86609    0.02829    0.63895    1.000
    N4893    N        0.82979    0.00796    0.72783    1.000
    N4894    N        0.82489    0.22255    0.64095    1.000
    Si4895   Si       0.86376    0.24556    0.71641    1.000
    Si4896   Si       0.84546    0.14723    0.70726    1.000
    N4897    N        0.84089    0.16723    0.66895    1.000
    N4898    N        0.83253    0.23474    0.74439    1.000
    Si4899   Si       0.86611    0.20125    0.65026    1.000
    N4900    N        0.81142    0.16234    0.72993    1.000
    N4901    N        0.85275    0.05652    0.80548    1.000
    Si4902   Si       0.84464    0.09927    0.79857    1.000
    N4903    N        0.84566    0.12691    0.83433    1.000
    Si4904   Si       0.83665    0.01577    0.80759    1.000
    Si4905   Si       0.83926    0.17030    0.82667    1.000
    Si4906   Si       0.82430    0.23884    0.85556    1.000
    N4907    N        0.84499    0.19972    0.86259    1.000
    N4908    N        0.81434    0.23777    0.81354    1.000
    Si4909   Si       0.83269    0.25935    0.78190    1.000
    Si4910   Si       0.85536    0.11188    0.87395    1.000
    N4911    N        0.81905    0.08856    0.88707    1.000
    Si4912   Si       0.85953    0.05213    0.97031    1.000
    Si4913   Si       0.82033    0.09354    0.93111    1.000
    N4914    N        0.86369    0.09848    0.93173    1.000
    N4915    N        0.82135    0.05679    0.95181    1.000
    Si4916   Si       0.82191    0.17777    0.89575    1.000
    N4917    N        0.85979    0.15327    0.89877    1.000
    N4918    N        0.81931    0.20047    0.93342    1.000
    Si4919   Si       0.83991    0.19401    0.97355    1.000
    N4920    N        0.85281    0.15214    0.97505    1.000
    N4921    N        0.82937    0.33412    0.05063    1.000
    Si4922   Si       0.85363    0.31098    0.02137    1.000
    Si4923   Si       0.81904    0.37230    0.10858    1.000
    N4924    N        0.86312    0.35624    0.11140    1.000
    N4925    N        0.86078    0.29000    0.10984    1.000
    Si4926   Si       0.85895    0.32289    0.08227    1.000
    N4927    N        0.85845    0.26730    0.01349    1.000
    Si4928   Si       0.83165    0.37938    0.03919    1.000
    N4929    N        0.83009    0.39969    0.07735    1.000
    N4930    N        0.83955    0.46839    0.08030    1.000
    Si4931   Si       0.85558    0.43140    0.09558    1.000
    Si4932   Si       0.85285    0.48678    0.04252    1.000
    N4933    N        0.81707    0.49703    0.01943    1.000
    N4934    N        0.86419    0.39253    0.01640    1.000
    N4935    N        0.80951    0.38104    0.14994    1.000
    N4936    N        0.87079    0.32317    0.17520    1.000
    N4937    N        0.84988    0.48211    0.18396    1.000
    N4938    N        0.85957    0.43402    0.13879    1.000
    Si4939   Si       0.82985    0.41781    0.16769    1.000
    Si4940   Si       0.81841    0.38737    0.23942    1.000
    N4941    N        0.84353    0.40343    0.20708    1.000
    N4942    N        0.81895    0.50279    0.13147    1.000
    N4943    N        0.84337    0.28414    0.31854    1.000
    N4944    N        0.84375    0.37651    0.27252    1.000
    Si4945   Si       0.86665    0.28192    0.27868    1.000
    Si4946   Si       0.86327    0.25961    0.34852    1.000
    N4947    N        0.81397    0.35153    0.33273    1.000
    Si4948   Si       0.83254    0.38557    0.31364    1.000
    N4949    N        0.85023    0.46112    0.35667    1.000
    Si4950   Si       0.83731    0.49248    0.28580    1.000
    N4951    N        0.86617    0.46088    0.29066    1.000
    Si4952   Si       0.81345    0.43754    0.35816    1.000
    N4953    N        0.86669    0.34766    0.37075    1.000
    Si4954   Si       0.82482    0.36034    0.37479    1.000
    N4955    N        0.84160    0.37489    0.44000    1.000
    N4956    N        0.84342    0.30502    0.41878    1.000
    Si4957   Si       0.81908    0.33642    0.43532    1.000
    Si4958   Si       0.82688    0.26559    0.41994    1.000
    N4959    N        0.84543    0.45163    0.42245    1.000
    N4960    N        0.82422    0.40274    0.38230    1.000
    N4961    N        0.83452    0.50619    0.45804    1.000
    Si4962   Si       0.84999    0.46591    0.46291    1.000
    N4963    N        0.82700    0.43158    0.48364    1.000
    Si4964   Si       0.85823    0.48201    0.39298    1.000
    Si4965   Si       0.82602    0.41162    0.42363    1.000
    Si4966   Si       0.84267    0.33554    0.54615    1.000
    N4967    N        0.82769    0.36909    0.52252    1.000
    N4968    N        0.83873    0.29507    0.52949    1.000
    Si4969   Si       0.84071    0.32475    0.61926    1.000
    N4970    N        0.81688    0.33345    0.58157    1.000
    Si4971   Si       0.81591    0.26094    0.53953    1.000
    Si4972   Si       0.83142    0.47370    0.55946    1.000
    N4973    N        0.84141    0.43160    0.55194    1.000
    Si4974   Si       0.84357    0.40775    0.51773    1.000
    N4975    N        0.85797    0.48975    0.51473    1.000
    N4976    N        0.86460    0.49760    0.57643    1.000
    N4977    N        0.83273    0.28167    0.62478    1.000
    N4978    N        0.82549    0.34433    0.65588    1.000
    Si4979   Si       0.83989    0.32445    0.69222    1.000
    N4980    N        0.84334    0.27927    0.69280    1.000
    Si4981   Si       0.81662    0.26296    0.65911    1.000
    N4982    N        0.81561    0.33731    0.72523    1.000
    N4983    N        0.85653    0.49713    0.71424    1.000
    Si4984   Si       0.82019    0.38789    0.66060    1.000
    N4985    N        0.84084    0.41385    0.62889    1.000
    N4986    N        0.83728    0.39589    0.69640    1.000
    Si4987   Si       0.81245    0.48977    0.70706    1.000
    N4988    N        0.85105    0.27458    0.86355    1.000
    N4989    N        0.84794    0.38298    0.87017    1.000
    N4990    N        0.82476    0.39163    0.77013    1.000
    Si4991   Si       0.86662    0.40534    0.77337    1.000
    N4992    N        0.85271    0.44739    0.77048    1.000
    Si4993   Si       0.83906    0.48393    0.81159    1.000
    N4994    N        0.84047    0.45313    0.84200    1.000
    Si4995   Si       0.86780    0.41890    0.85050    1.000
    Si4996   Si       0.87129    0.48174    0.75178    1.000
    N4997    N        0.84298    0.32260    0.97735    1.000
    Si4998   Si       0.83659    0.29943    0.89838    1.000
    N4999    N        0.81865    0.27900    0.93068    1.000
    N5000    N        0.86838    0.32731    0.91310    1.000
    N5001    N        0.80873    0.43045    0.96892    1.000
    Si5002   Si       0.84488    0.43977    0.94376    1.000
    N5003    N        0.81996    0.43305    0.90756    1.000
    N5004    N        0.84693    0.48346    0.95136    1.000
    N5005    N        0.82901    0.56528    0.02070    1.000
    N5006    N        0.85466    0.55513    0.10910    1.000
    Si5007   Si       0.81661    0.60215    0.03767    1.000
    N5008    N        0.81493    0.60253    0.08022    1.000
    Si5009   Si       0.87099    0.55383    0.02382    1.000
    N5010    N        0.83579    0.63433    0.01676    1.000
    Si5011   Si       0.84663    0.67189    0.04048    1.000
    N5012    N        0.84797    0.66936    0.08219    1.000
    Si5013   Si       0.81808    0.64061    0.09865    1.000
    N5014    N        0.83962    0.61277    0.19667    1.000
    Si5015   Si       0.85595    0.52641    0.14098    1.000
    N5016    N        0.85077    0.54460    0.18182    1.000
    Si5017   Si       0.82042    0.57556    0.18220    1.000
    Si5018   Si       0.84288    0.61543    0.23961    1.000
    N5019    N        0.83283    0.50956    0.24608    1.000
    Si5020   Si       0.85981    0.51245    0.21413    1.000
    Si5021   Si       0.83321    0.72075    0.18828    1.000
    Si5022   Si       0.84410    0.65050    0.17411    1.000
    N5023    N        0.86857    0.74829    0.19251    1.000
    N5024    N        0.83898    0.68221    0.20388    1.000
    N5025    N        0.82608    0.71802    0.14561    1.000
    Si5026   Si       0.85750    0.68922    0.12403    1.000
    N5027    N        0.82062    0.65622    0.13851    1.000
    Si5028   Si       0.87144    0.68489    0.23621    1.000
    N5029    N        0.83911    0.52799    0.31277    1.000
    Si5030   Si       0.85698    0.56130    0.29195    1.000
    N5031    N        0.85201    0.59995    0.31195    1.000
    Si5032   Si       0.81893    0.53522    0.35265    1.000
    N5033    N        0.83977    0.57456    0.25349    1.000
    N5034    N        0.81577    0.57696    0.36220    1.000
    Si5035   Si       0.86275    0.63448    0.33805    1.000
    Si5036   Si       0.81098    0.60601    0.33036    1.000
    N5037    N        0.85034    0.70755    0.26529    1.000
    N5038    N        0.82223    0.71579    0.32637    1.000
    Si5039   Si       0.86353    0.70706    0.30730    1.000
    N5040    N        0.82212    0.64663    0.34090    1.000
    N5041    N        0.82655    0.56536    0.43126    1.000
    N5042    N        0.82768    0.51270    0.38724    1.000
    Si5043   Si       0.86707    0.57414    0.44538    1.000
    N5044    N        0.86716    0.61721    0.45194    1.000
    N5045    N        0.81594    0.63041    0.40986    1.000
    Si5046   Si       0.81339    0.52538    0.42696    1.000
    Si5047   Si       0.84617    0.52686    0.49569    1.000
    N5048    N        0.87145    0.67968    0.41142    1.000
    Si5049   Si       0.85712    0.63822    0.41341    1.000
    N5050    N        0.84728    0.72803    0.44673    1.000
    Si5051   Si       0.84730    0.71543    0.40589    1.000
    N5052    N        0.85259    0.75104    0.38273    1.000
    Si5053   Si       0.83740    0.69783    0.47570    1.000
    N5054    N        0.85553    0.57494    0.59943    1.000
    Si5055   Si       0.82396    0.59832    0.52890    1.000
    N5056    N        0.85969    0.62243    0.52813    1.000
    Si5057   Si       0.82765    0.61031    0.60195    1.000
    N5058    N        0.82017    0.55644    0.51788    1.000
    Si5059   Si       0.85165    0.75884    0.58265    1.000
    N5060    N        0.83915    0.71857    0.58807    1.000
    N5061    N        0.83560    0.70111    0.52031    1.000
    N5062    N        0.84927    0.64778    0.59678    1.000
    Si5063   Si       0.83932    0.68723    0.61678    1.000
    N5064    N        0.86855    0.51612    0.64444    1.000
    Si5065   Si       0.84466    0.55028    0.63309    1.000
    N5066    N        0.85302    0.58048    0.66532    1.000
    Si5067   Si       0.82664    0.62413    0.73428    1.000
    Si5068   Si       0.81895    0.60503    0.67677    1.000
    Si5069   Si       0.85996    0.71029    0.74605    1.000
    N5070    N        0.86892    0.69065    0.64850    1.000
    N5071    N        0.84365    0.71616    0.70736    1.000
    Si5072   Si       0.82274    0.75326    0.69955    1.000
    Si5073   Si       0.83710    0.68282    0.67807    1.000
    N5074    N        0.82933    0.64418    0.69561    1.000
    N5075    N        0.84995    0.57056    0.79207    1.000
    Si5076   Si       0.85473    0.61306    0.78786    1.000
    N5077    N        0.82677    0.52249    0.83279    1.000
    Si5078   Si       0.81293    0.55967    0.81349    1.000
    N5079    N        0.86979    0.61737    0.74606    1.000
    N5080    N        0.81858    0.63271    0.77428    1.000
    Si5081   Si       0.84296    0.73221    0.81345    1.000
    N5082    N        0.83051    0.71003    0.77713    1.000
    Si5083   Si       0.85445    0.66292    0.84493    1.000
    N5084    N        0.81876    0.75046    0.84408    1.000
    N5085    N        0.86620    0.70348    0.83590    1.000
    Si5086   Si       0.83903    0.51853    0.87271    1.000
    Si5087   Si       0.82912    0.57633    0.92485    1.000
    N5088    N        0.84953    0.55408    0.89557    1.000
    N5089    N        0.85992    0.59153    0.95147    1.000
    Si5090   Si       0.86074    0.62769    0.97706    1.000
    N5091    N        0.86021    0.65221    0.88825    1.000
    Si5092   Si       0.83851    0.73495    0.94965    1.000
    N5093    N        0.83344    0.65391    0.95529    1.000
    N5094    N        0.81912    0.73452    0.90926    1.000
    Si5095   Si       0.82485    0.64760    0.91197    1.000
    Si5096   Si       0.83735    0.78216    0.05878    1.000
    Si5097   Si       0.83030    0.84907    0.09006    1.000
    N5098    N        0.82337    0.82334    0.05683    1.000
    N5099    N        0.82984    0.76925    0.10022    1.000
    N5100    N        0.87396    0.79266    0.00781    1.000
    N5101    N        0.87196    0.84089    0.10363    1.000
    N5102    N        0.83630    0.90102    0.01173    1.000
    Si5103   Si       0.82430    0.98367    0.07937    1.000
    N5104    N        0.85359    0.95325    0.08920    1.000
    N5105    N        0.83944    0.80510    0.23595    1.000
    N5106    N        0.85066    0.81278    0.16928    1.000
    Si5107   Si       0.86571    0.79239    0.20315    1.000
    N5108    N        0.83085    0.87877    0.24105    1.000
    N5109    N        0.84140    0.99855    0.20546    1.000
    Si5110   Si       0.85420    0.94071    0.13143    1.000
    N5111    N        0.81803    0.97840    0.15176    1.000
    Si5112   Si       0.81963    0.89547    0.17648    1.000
    N5113    N        0.82103    0.91193    0.13593    1.000
    N5114    N        0.81299    0.93031    0.20342    1.000
    N5115    N        0.86276    0.89118    0.18325    1.000
    Si5116   Si       0.85265    0.00053    0.16431    1.000
    Si5117   Si       0.87067    0.88890    0.22449    1.000
    Si5118   Si       0.83474    0.84495    0.34095    1.000
    N5119    N        0.85505    0.83969    0.30213    1.000
    Si5120   Si       0.84528    0.83952    0.25955    1.000
    N5121    N        0.84504    0.81171    0.36952    1.000
    N5122    N        0.84259    0.88591    0.35323    1.000
    N5123    N        0.83293    0.98448    0.32830    1.000
    N5124    N        0.82418    0.93666    0.27849    1.000
    Si5125   Si       0.86621    0.94397    0.27612    1.000
    N5126    N        0.84675    0.79437    0.48040    1.000
    Si5127   Si       0.81606    0.77758    0.38333    1.000
    Si5128   Si       0.82631    0.76353    0.45762    1.000
    Si5129   Si       0.81580    0.82602    0.48625    1.000
    Si5130   Si       0.81469    0.94365    0.44140    1.000
    Si5131   Si       0.81372    0.91060    0.37714    1.000
    N5132    N        0.84228    0.96478    0.46667    1.000
    N5133    N        0.83451    0.93743    0.40429    1.000
    Si5134   Si       0.83113    0.00248    0.48926    1.000
    Si5135   Si       0.83843    0.86025    0.59294    1.000
    N5136    N        0.86420    0.78470    0.61287    1.000
    N5137    N        0.84011    0.76634    0.54332    1.000
    N5138    N        0.83771    0.86126    0.49937    1.000
    N5139    N        0.85310    0.96161    0.58960    1.000
    N5140    N        0.83024    0.90289    0.59344    1.000
    Si5141   Si       0.86040    0.00065    0.57365    1.000
    N5142    N        0.82320    0.92717    0.52666    1.000
    Si5143   Si       0.82087    0.93847    0.56744    1.000
    Si5144   Si       0.85918    0.92638    0.61488    1.000
    N5145    N        0.85051    0.00603    0.52924    1.000
    N5146    N        0.84084    0.78888    0.67872    1.000
    Si5147   Si       0.84017    0.87864    0.66934    1.000
    N5148    N        0.82926    0.85022    0.63668    1.000
    Si5149   Si       0.83516    0.80273    0.63867    1.000
    N5150    N        0.86926    0.85489    0.69426    1.000
    Si5151   Si       0.87364    0.81238    0.69391    1.000
    Si5152   Si       0.82049    0.00475    0.68642    1.000
    Si5153   Si       0.87055    0.99896    0.74283    1.000
    N5154    N        0.84708    0.92580    0.65971    1.000
    N5155    N        0.85560    0.99493    0.66342    1.000
    N5156    N        0.84244    0.84904    0.84683    1.000
    N5157    N        0.82209    0.80897    0.77990    1.000
    Si5158   Si       0.86466    0.80282    0.77366    1.000
    N5159    N        0.86714    0.76850    0.80090    1.000
    N5160    N        0.86546    0.91423    0.77917    1.000
    Si5161   Si       0.82376    0.90866    0.77538    1.000
    N5162    N        0.86171    0.98873    0.78622    1.000
    N5163    N        0.83651    0.00262    0.85071    1.000
    Si5164   Si       0.86806    0.97882    0.86747    1.000
    Si5165   Si       0.83308    0.84333    0.88830    1.000
    N5166    N        0.82617    0.77476    0.95986    1.000
    Si5167   Si       0.85960    0.79878    0.96900    1.000
    N5168    N        0.84174    0.83984    0.96865    1.000
    N5169    N        0.82140    0.80203    0.89637    1.000
    Si5170   Si       0.83630    0.76355    0.88215    1.000
    Si5171   Si       0.82025    0.99187    0.99506    1.000
    Si5172   Si       0.81384    0.96644    0.92359    1.000
    N5173    N        0.85232    0.96009    0.90373    1.000
    N5174    N        0.82545    0.96132    0.96509    1.000
    N5175    N        0.86406    0.90757    0.94502    1.000
    Si5176   Si       0.82990    0.91943    0.97276    1.000
    N5177    N        0.90611    0.05620    0.04900    1.000
    Si5178   Si       0.91540    0.07978    0.01408    1.000
    N5179    N        0.91758    0.02377    0.10923    1.000
    N5180    N        0.87559    0.08100    0.99790    1.000
    Si5181   Si       0.89564    0.15145    0.07139    1.000
    N5182    N        0.90648    0.19185    0.06042    1.000
    Si5183   Si       0.90920    0.21835    0.09485    1.000
    N5184    N        0.92533    0.24942    0.02150    1.000
    N5185    N        0.90186    0.08919    0.12418    1.000
    N5186    N        0.92060    0.02864    0.17109    1.000
    N5187    N        0.91631    0.09633    0.22753    1.000
    Si5188   Si       0.89554    0.04833    0.13979    1.000
    Si5189   Si       0.87949    0.12535    0.14367    1.000
    Si5190   Si       0.87421    0.09009    0.21808    1.000
    N5191    N        0.87368    0.05092    0.23592    1.000
    Si5192   Si       0.87411    0.18356    0.19801    1.000
    N5193    N        0.91946    0.14226    0.15316    1.000
    N5194    N        0.91239    0.20158    0.18736    1.000
    N5195    N        0.87522    0.16077    0.23646    1.000
    Si5196   Si       0.91701    0.24313    0.19677    1.000
    N5197    N        0.88756    0.07407    0.29151    1.000
    Si5198   Si       0.91359    0.06374    0.25902    1.000
    Si5199   Si       0.89463    0.10444    0.32312    1.000
    N5200    N        0.90831    0.05629    0.36085    1.000
    N5201    N        0.88101    0.13906    0.29721    1.000
    Si5202   Si       0.90509    0.16062    0.26747    1.000
    Si5203   Si       0.91140    0.23108    0.31053    1.000
    N5204    N        0.87680    0.21948    0.33415    1.000
    N5205    N        0.92342    0.19932    0.28236    1.000
    Si5206   Si       0.89041    0.04582    0.45889    1.000
    N5207    N        0.91045    0.08395    0.47003    1.000
    N5208    N        0.90271    0.03217    0.41956    1.000
    N5209    N        0.90149    0.10593    0.40631    1.000
    Si5210   Si       0.87939    0.03371    0.38323    1.000
    N5211    N        0.90887    0.01824    0.48688    1.000
    N5212    N        0.91346    0.21216    0.44350    1.000
    Si5213   Si       0.89797    0.17620    0.42619    1.000
    N5214    N        0.87612    0.17260    0.38961    1.000
    N5215    N        0.87498    0.15932    0.46103    1.000
    Si5216   Si       0.88753    0.23807    0.46616    1.000
    N5217    N        0.89415    0.11459    0.58670    1.000
    N5218    N        0.89534    0.06485    0.52994    1.000
    Si5219   Si       0.89121    0.02292    0.52651    1.000
    Si5220   Si       0.88060    0.10011    0.54781    1.000
    Si5221   Si       0.92857    0.02255    0.59579    1.000
    Si5222   Si       0.93006    0.07985    0.50835    1.000
    N5223    N        0.91854    0.23829    0.54120    1.000
    Si5224   Si       0.87807    0.22049    0.54134    1.000
    Si5225   Si       0.87853    0.15716    0.59203    1.000
    N5226    N        0.89070    0.18226    0.55679    1.000
    Si5227   Si       0.88809    0.17036    0.50271    1.000
    Si5228   Si       0.91435    0.05205    0.66730    1.000
    N5229    N        0.90889    0.02660    0.63126    1.000
    N5230    N        0.88383    0.23733    0.62029    1.000
    N5231    N        0.89309    0.17412    0.62777    1.000
    Si5232   Si       0.92221    0.25216    0.63643    1.000
    Si5233   Si       0.90829    0.18164    0.70501    1.000
    N5234    N        0.88124    0.21414    0.69096    1.000
    N5235    N        0.88375    0.15303    0.72722    1.000
    Si5236   Si       0.88985    0.05892    0.78471    1.000
    N5237    N        0.88423    0.10371    0.77757    1.000
    Si5238   Si       0.92312    0.07625    0.84885    1.000
    N5239    N        0.92526    0.05302    0.81182    1.000
    N5240    N        0.89774    0.03378    0.74962    1.000
    Si5241   Si       0.89304    0.14505    0.77026    1.000
    N5242    N        0.91257    0.17237    0.85110    1.000
    Si5243   Si       0.90752    0.18980    0.81097    1.000
    N5244    N        0.87060    0.17423    0.79727    1.000
    N5245    N        0.92597    0.22384    0.79002    1.000
    N5246    N        0.88818    0.08448    0.87320    1.000
    N5247    N        0.88828    0.03870    0.94113    1.000
    Si5248   Si       0.89424    0.07459    0.91526    1.000
    N5249    N        0.87887    0.21435    0.97297    1.000
    Si5250   Si       0.89221    0.25179    0.99227    1.000
    Si5251   Si       0.90907    0.20253    0.94307    1.000
    N5252    N        0.91216    0.15846    0.94046    1.000
    Si5253   Si       0.87163    0.14161    0.93928    1.000
    N5254    N        0.90167    0.21799    0.90274    1.000
    Si5255   Si       0.88177    0.18476    0.88042    1.000
    N5256    N        0.88787    0.31158    0.04955    1.000
    Si5257   Si       0.92520    0.28424    0.05435    1.000
    N5258    N        0.91860    0.26037    0.08836    1.000
    N5259    N        0.87488    0.46541    0.01368    1.000
    Si5260   Si       0.88991    0.42524    0.03076    1.000
    N5261    N        0.89232    0.42589    0.07395    1.000
    N5262    N        0.92427    0.41515    0.00174    1.000
    Si5263   Si       0.90222    0.28098    0.12255    1.000
    N5264    N        0.92157    0.32010    0.13073    1.000
    Si5265   Si       0.88951    0.35018    0.14633    1.000
    Si5266   Si       0.88898    0.30754    0.21076    1.000
    N5267    N        0.92334    0.26284    0.15781    1.000
    N5268    N        0.88306    0.26401    0.21370    1.000
    N5269    N        0.90216    0.38190    0.17395    1.000
    Si5270   Si       0.88779    0.40336    0.20958    1.000
    N5271    N        0.89413    0.50281    0.14300    1.000
    N5272    N        0.93021    0.44617    0.14114    1.000
    Si5273   Si       0.88730    0.46150    0.16043    1.000
    N5274    N        0.90010    0.44326    0.19905    1.000
    Si5275   Si       0.92125    0.47101    0.22508    1.000
    N5276    N        0.90188    0.38688    0.24816    1.000
    N5277    N        0.90041    0.34470    0.30679    1.000
    Si5278   Si       0.89374    0.36810    0.34302    1.000
    N5279    N        0.90524    0.27225    0.29760    1.000
    Si5280   Si       0.88172    0.35483    0.26866    1.000
    Si5281   Si       0.92596    0.31034    0.30506    1.000
    N5282    N        0.87319    0.31568    0.25152    1.000
    N5283    N        0.87112    0.40176    0.32872    1.000
    N5284    N        0.91631    0.46162    0.33817    1.000
    Si5285   Si       0.87750    0.44478    0.32658    1.000
    N5286    N        0.89319    0.27738    0.37304    1.000
    N5287    N        0.89950    0.33872    0.48022    1.000
    Si5288   Si       0.87878    0.37350    0.46414    1.000
    N5289    N        0.91144    0.27278    0.47462    1.000
    Si5290   Si       0.92290    0.31155    0.45472    1.000
    Si5291   Si       0.87970    0.31429    0.39565    1.000
    N5292    N        0.91373    0.32985    0.41597    1.000
    Si5293   Si       0.92917    0.37206    0.40835    1.000
    N5294    N        0.89637    0.50074    0.39623    1.000
    N5295    N        0.90422    0.39461    0.43433    1.000
    N5296    N        0.89335    0.46027    0.47027    1.000
    Si5297   Si       0.92835    0.47238    0.37999    1.000
    Si5298   Si       0.91878    0.43440    0.44593    1.000
    N5299    N        0.88470    0.33993    0.55253    1.000
    Si5300   Si       0.90357    0.34969    0.58954    1.000
    Si5301   Si       0.91316    0.33565    0.52160    1.000
    N5302    N        0.89579    0.39133    0.59717    1.000
    Si5303   Si       0.89631    0.46828    0.51126    1.000
    N5304    N        0.91418    0.43695    0.54060    1.000
    Si5305   Si       0.88934    0.49382    0.61189    1.000
    Si5306   Si       0.91998    0.42630    0.58150    1.000
    N5307    N        0.92176    0.49906    0.52565    1.000
    N5308    N        0.90677    0.45196    0.61712    1.000
    Si5309   Si       0.92287    0.40716    0.51122    1.000
    N5310    N        0.88225    0.39735    0.50049    1.000
    N5311    N        0.88603    0.32787    0.62353    1.000
    N5312    N        0.91909    0.28315    0.66664    1.000
    Si5313   Si       0.90828    0.32524    0.66046    1.000
    N5314    N        0.88027    0.34337    0.69161    1.000
    N5315    N        0.89985    0.26233    0.73463    1.000
    Si5316   Si       0.88284    0.41744    0.63199    1.000
    Si5317   Si       0.88067    0.38631    0.70162    1.000
    N5318    N        0.92159    0.48644    0.67729    1.000
    N5319    N        0.89352    0.40495    0.73787    1.000
    N5320    N        0.90262    0.40523    0.66842    1.000
    N5321    N        0.88733    0.33141    0.84068    1.000
    Si5322   Si       0.90390    0.36466    0.81558    1.000
    Si5323   Si       0.88413    0.28760    0.83921    1.000
    N5324    N        0.91498    0.35813    0.77473    1.000
    N5325    N        0.92100    0.26700    0.85450    1.000
    N5326    N        0.87114    0.27066    0.79953    1.000
    Si5327   Si       0.90689    0.26037    0.77758    1.000
    N5328    N        0.88094    0.40226    0.81337    1.000
    Si5329   Si       0.92220    0.49755    0.78921    1.000
    N5330    N        0.93079    0.48274    0.82900    1.000
    N5331    N        0.87356    0.50203    0.79172    1.000
    Si5332   Si       0.91627    0.47768    0.86975    1.000
    N5333    N        0.88187    0.50595    0.87098    1.000
    N5334    N        0.91447    0.48468    0.74784    1.000
    Si5335   Si       0.87810    0.35299    0.87940    1.000
    N5336    N        0.89637    0.28023    0.95902    1.000
    N5337    N        0.91347    0.37629    0.88742    1.000
    N5338    N        0.90776    0.34946    0.97006    1.000
    Si5339   Si       0.88047    0.31974    0.95461    1.000
    Si5340   Si       0.90871    0.41344    0.91084    1.000
    N5341    N        0.89719    0.43818    0.87658    1.000
    N5342    N        0.91810    0.47715    0.96207    1.000
    Si5343   Si       0.88151    0.49199    0.97713    1.000
    N5344    N        0.87996    0.41304    0.94366    1.000
    Si5345   Si       0.88957    0.38992    0.97905    1.000
    N5346    N        0.89140    0.58378    0.04929    1.000
    Si5347   Si       0.88802    0.55467    0.08338    1.000
    Si5348   Si       0.92032    0.61247    0.03299    1.000
    N5349    N        0.92249    0.55552    0.10980    1.000
    N5350    N        0.87533    0.52147    0.05393    1.000
    N5351    N        0.89849    0.62345    0.99716    1.000
    N5352    N        0.92445    0.65243    0.05073    1.000
    Si5353   Si       0.91833    0.68859    0.02869    1.000
    N5354    N        0.88813    0.71854    0.11138    1.000
    N5355    N        0.87689    0.68715    0.01285    1.000
    Si5356   Si       0.92778    0.71161    0.10031    1.000
    Si5357   Si       0.87389    0.75937    0.10809    1.000
    N5358    N        0.89943    0.50980    0.23025    1.000
    N5359    N        0.91713    0.58690    0.22930    1.000
    N5360    N        0.88185    0.66423    0.15474    1.000
    Si5361   Si       0.90891    0.74676    0.21249    1.000
    N5362    N        0.90741    0.70545    0.22682    1.000
    Si5363   Si       0.92416    0.65281    0.15351    1.000
    N5364    N        0.87721    0.64232    0.24744    1.000
    N5365    N        0.89814    0.55136    0.28614    1.000
    N5366    N        0.91560    0.56389    0.35715    1.000
    Si5367   Si       0.91331    0.62172    0.25678    1.000
    Si5368   Si       0.92319    0.57065    0.31599    1.000
    N5369    N        0.92676    0.61058    0.29764    1.000
    Si5370   Si       0.91839    0.54588    0.24895    1.000
    N5371    N        0.90194    0.72668    0.31674    1.000
    Si5372   Si       0.91949    0.68895    0.33599    1.000
    N5373    N        0.88378    0.66869    0.32418    1.000
    Si5374   Si       0.92271    0.53719    0.39361    1.000
    Si5375   Si       0.90894    0.59599    0.38472    1.000
    N5376    N        0.89612    0.56736    0.41572    1.000
    N5377    N        0.87819    0.55480    0.48281    1.000
    N5378    N        0.87675    0.62226    0.37707    1.000
    Si5379   Si       0.87876    0.63454    0.49119    1.000
    N5380    N        0.91990    0.72739    0.43822    1.000
    Si5381   Si       0.92335    0.75023    0.47454    1.000
    N5382    N        0.92866    0.69814    0.37779    1.000
    N5383    N        0.87917    0.67927    0.47939    1.000
    Si5384   Si       0.90111    0.68924    0.44186    1.000
    Si5385   Si       0.89771    0.57935    0.58874    1.000
    N5386    N        0.91069    0.62132    0.57887    1.000
    Si5387   Si       0.89562    0.51860    0.55414    1.000
    N5388    N        0.89860    0.56121    0.54874    1.000
    Si5389   Si       0.91078    0.57145    0.50776    1.000
    N5390    N        0.91967    0.52060    0.59331    1.000
    N5391    N        0.91922    0.61426    0.49448    1.000
    N5392    N        0.89645    0.67788    0.54371    1.000
    Si5393   Si       0.87863    0.70654    0.51664    1.000
    Si5394   Si       0.87833    0.64324    0.56271    1.000
    N5395    N        0.89245    0.74488    0.50612    1.000
    N5396    N        0.90527    0.54995    0.69030    1.000
    N5397    N        0.91339    0.62097    0.68794    1.000
    Si5398   Si       0.90863    0.61856    0.73081    1.000
    Si5399   Si       0.89574    0.58672    0.66678    1.000
    N5400    N        0.91544    0.57829    0.62881    1.000
    Si5401   Si       0.88532    0.51262    0.68425    1.000
    N5402    N        0.91619    0.74238    0.62762    1.000
    Si5403   Si       0.91018    0.70187    0.64248    1.000
    N5404    N        0.92753    0.65791    0.73690    1.000
    N5405    N        0.93229    0.69618    0.67959    1.000
    Si5406   Si       0.90820    0.60628    0.83796    1.000
    N5407    N        0.89364    0.56559    0.84621    1.000
    Si5408   Si       0.88120    0.54568    0.80764    1.000
    N5409    N        0.92170    0.54285    0.79114    1.000
    N5410    N        0.87682    0.63100    0.82287    1.000
    Si5411   Si       0.89719    0.72129    0.86018    1.000
    N5412    N        0.92626    0.73746    0.83232    1.000
    N5413    N        0.90096    0.72237    0.75372    1.000
    N5414    N        0.92205    0.61768    0.87885    1.000
    N5415    N        0.88531    0.53670    0.98639    1.000
    Si5416   Si       0.89131    0.54557    0.88502    1.000
    Si5417   Si       0.89649    0.56499    0.95540    1.000
    N5418    N        0.90590    0.53636    0.92513    1.000
    N5419    N        0.93328    0.58894    0.95540    1.000
    Si5420   Si       0.93060    0.63167    0.96757    1.000
    N5421    N        0.87923    0.75363    0.88421    1.000
    N5422    N        0.91373    0.68987    0.88446    1.000
    Si5423   Si       0.90271    0.74907    0.92188    1.000
    N5424    N        0.88036    0.72247    0.94840    1.000
    Si5425   Si       0.90216    0.65051    0.90068    1.000
    Si5426   Si       0.89622    0.69055    0.97104    1.000
    N5427    N        0.90497    0.65765    0.94336    1.000
    Si5428   Si       0.90565    0.78832    0.03686    1.000
    Si5429   Si       0.90797    0.85507    0.07989    1.000
    N5430    N        0.92053    0.82730    0.05082    1.000
    N5431    N        0.88020    0.77521    0.06755    1.000
    Si5432   Si       0.87745    0.89662    0.01992    1.000
    N5433    N        0.89440    0.89059    0.06050    1.000
    Si5434   Si       0.88986    0.92827    0.07974    1.000
    N5435    N        0.91304    0.96398    0.07333    1.000
    Si5436   Si       0.88803    0.98848    0.09886    1.000
    N5437    N        0.89119    0.93541    0.00985    1.000
    Si5438   Si       0.88251    0.82143    0.14230    1.000
    N5439    N        0.90058    0.78251    0.13459    1.000
    N5440    N        0.91048    0.84992    0.15749    1.000
    N5441    N        0.90376    0.78808    0.22706    1.000
    N5442    N        0.88444    0.84950    0.23495    1.000
    Si5443   Si       0.91830    0.82439    0.24237    1.000
    Si5444   Si       0.92696    0.93736    0.23855    1.000
    N5445    N        0.88216    0.97358    0.14627    1.000
    Si5446   Si       0.89763    0.89013    0.15778    1.000
    N5447    N        0.88752    0.91378    0.12299    1.000
    N5448    N        0.92404    0.97031    0.20955    1.000
    Si5449   Si       0.92015    0.95999    0.16712    1.000
    N5450    N        0.88866    0.92049    0.24565    1.000
    Si5451   Si       0.89719    0.83186    0.31373    1.000
    N5452    N        0.90576    0.86791    0.33643    1.000
    N5453    N        0.89942    0.79273    0.33217    1.000
    Si5454   Si       0.87959    0.78335    0.36934    1.000
    Si5455   Si       0.92758    0.76026    0.31630    1.000
    N5456    N        0.87542    0.98473    0.26632    1.000
    N5457    N        0.88021    0.93705    0.31834    1.000
    Si5458   Si       0.91693    0.99355    0.27710    1.000
    Si5459   Si       0.88148    0.90294    0.34362    1.000
    N5460    N        0.91045    0.00227    0.31796    1.000
    Si5461   Si       0.87581    0.97752    0.33238    1.000
    N5462    N        0.91302    0.78088    0.39821    1.000
    N5463    N        0.90581    0.85230    0.47068    1.000
    N5464    N        0.91889    0.85141    0.40552    1.000
    N5465    N        0.92825    0.79239    0.46127    1.000
    Si5466   Si       0.87741    0.87707    0.49068    1.000
    Si5467   Si       0.91631    0.88005    0.43973    1.000
    Si5468   Si       0.92496    0.82128    0.49321    1.000
    Si5469   Si       0.93120    0.81103    0.42321    1.000
    N5470    N        0.87590    0.99076    0.37433    1.000
    N5471    N        0.89697    0.92025    0.37905    1.000
    N5472    N        0.90272    0.96458    0.42758    1.000
    N5473    N        0.88292    0.90573    0.45605    1.000
    Si5474   Si       0.93087    0.99725    0.41871    1.000
    Si5475   Si       0.88381    0.94780    0.46292    1.000
    Si5476   Si       0.87500    0.95252    0.39732    1.000
    N5477    N        0.89955    0.80802    0.52795    1.000
    Si5478   Si       0.91247    0.82542    0.56826    1.000
    N5479    N        0.87853    0.85062    0.58004    1.000
    Si5480   Si       0.86932    0.78052    0.51511    1.000
    N5481    N        0.90515    0.00402    0.56334    1.000
    Si5482   Si       0.92706    0.91911    0.51892    1.000
    Si5483   Si       0.90684    0.88806    0.57154    1.000
    N5484    N        0.89381    0.89302    0.52762    1.000
    N5485    N        0.89793    0.90813    0.61020    1.000
    N5486    N        0.93236    0.93204    0.55968    1.000
    N5487    N        0.91776    0.94916    0.49097    1.000
    Si5488   Si       0.90616    0.78355    0.62660    1.000
    N5489    N        0.88115    0.79106    0.73351    1.000
    N5490    N        0.90965    0.80374    0.66499    1.000
    Si5491   Si       0.91150    0.86697    0.70549    1.000
    Si5492   Si       0.91466    0.76377    0.74366    1.000
    Si5493   Si       0.87208    0.95762    0.67852    1.000
    Si5494   Si       0.92612    0.91904    0.64117    1.000
    N5495    N        0.90997    0.89741    0.73638    1.000
    Si5496   Si       0.91795    0.93964    0.73793    1.000
    N5497    N        0.91254    0.95607    0.66124    1.000
    N5498    N        0.92367    0.88579    0.66949    1.000
    N5499    N        0.88379    0.96294    0.72062    1.000
    Si5500   Si       0.90680    0.77259    0.81761    1.000
    N5501    N        0.90812    0.81244    0.83626    1.000
    Si5502   Si       0.88084    0.84396    0.82750    1.000
    N5503    N        0.87833    0.84305    0.78410    1.000
    N5504    N        0.93023    0.77972    0.78094    1.000
    Si5505   Si       0.89857    0.88449    0.78184    1.000
    N5506    N        0.89523    0.88457    0.82911    1.000
    Si5507   Si       0.88100    0.95176    0.79627    1.000
    Si5508   Si       0.91162    0.91883    0.85077    1.000
    N5509    N        0.88511    0.95223    0.83865    1.000
    N5510    N        0.92073    0.94788    0.78046    1.000
    N5511    N        0.89168    0.78715    0.94139    1.000
    Si5512   Si       0.90633    0.82127    0.92052    1.000
    N5513    N        0.89450    0.86911    0.98982    1.000
    N5514    N        0.92748    0.85614    0.93614    1.000
    Si5515   Si       0.87334    0.86495    0.95137    1.000
    N5516    N        0.87201    0.84390    0.91075    1.000
    Si5517   Si       0.88481    0.93582    0.92133    1.000
    Si5518   Si       0.91082    0.00397    0.92826    1.000
    N5519    N        0.90709    0.96393    0.94508    1.000
    Si5520   Si       0.92187    0.94665    0.98330    1.000
    N5521    N        0.90623    0.99735    0.88591    1.000
    N5522    N        0.91238    0.91480    0.89384    1.000
    N5523    N        0.96477    0.07482    0.08259    1.000
    Si5524   Si       0.96035    0.10992    0.05877    1.000
    Si5525   Si       0.93650    0.04166    0.07418    1.000
    N5526    N        0.93597    0.11603    0.02169    1.000
    N5527    N        0.96174    0.01233    0.05438    1.000
    N5528    N        0.93427    0.13440    0.08398    1.000
    Si5529   Si       0.96773    0.13922    0.00410    1.000
    N5530    N        0.97401    0.21782    0.05984    1.000
    Si5531   Si       0.98006    0.20738    0.10053    1.000
    Si5532   Si       0.93894    0.20854    0.03425    1.000
    N5533    N        0.95912    0.18331    0.00419    1.000
    Si5534   Si       0.93610    0.11558    0.12269    1.000
    N5535    N        0.97604    0.10765    0.14006    1.000
    N5536    N        0.98098    0.02822    0.21234    1.000
    N5537    N        0.98131    0.03850    0.14284    1.000
    Si5538   Si       0.93822    0.01268    0.20870    1.000
    Si5539   Si       0.95611    0.10973    0.24216    1.000
    Si5540   Si       0.94552    0.01437    0.13888    1.000
    N5541    N        0.94844    0.25285    0.22538    1.000
    Si5542   Si       0.94011    0.18062    0.15941    1.000
    N5543    N        0.94160    0.19991    0.11988    1.000
    N5544    N        0.97615    0.16792    0.18037    1.000
    Si5545   Si       0.98838    0.23904    0.23094    1.000
    N5546    N        0.95763    0.07816    0.27315    1.000
    N5547    N        0.96922    0.05186    0.33534    1.000
    Si5548   Si       0.96663    0.09118    0.31494    1.000
    Si5549   Si       0.97729    0.04267    0.25633    1.000
    N5550    N        0.93523    0.10848    0.33741    1.000
    Si5551   Si       0.93486    0.02511    0.34515    1.000
    N5552    N        0.93386    0.02397    0.25122    1.000
    N5553    N        0.94676    0.14552    0.26332    1.000
    Si5554   Si       0.96234    0.18442    0.27835    1.000
    N5555    N        0.94615    0.23288    0.33684    1.000
    N5556    N        0.98483    0.17906    0.31704    1.000
    Si5557   Si       0.98646    0.21758    0.33872    1.000
    N5558    N        0.96310    0.11545    0.47863    1.000
    N5559    N        0.96318    0.09386    0.40668    1.000
    Si5560   Si       0.93500    0.11050    0.44150    1.000
    Si5561   Si       0.93134    0.08996    0.37739    1.000
    N5562    N        0.98569    0.20310    0.44923    1.000
    Si5563   Si       0.94792    0.18628    0.45836    1.000
    N5564    N        0.93668    0.15533    0.43018    1.000
    N5565    N        0.96622    0.11791    0.60328    1.000
    N5566    N        0.95039    0.05885    0.58469    1.000
    N5567    N        0.96780    0.05863    0.51085    1.000
    Si5568   Si       0.93512    0.10129    0.57943    1.000
    N5569    N        0.93421    0.11125    0.53810    1.000
    Si5570   Si       0.98972    0.01931    0.52190    1.000
    Si5571   Si       0.95387    0.14181    0.51476    1.000
    N5572    N        0.95163    0.19120    0.60089    1.000
    Si5573   Si       0.94476    0.22696    0.57432    1.000
    N5574    N        0.93169    0.17435    0.49728    1.000
    N5575    N        0.97859    0.25957    0.50358    1.000
    N5576    N        0.93911    0.08592    0.66025    1.000
    Si5577   Si       0.95748    0.12184    0.69277    1.000
    N5578    N        0.95511    0.08266    0.72536    1.000
    Si5579   Si       0.97497    0.09200    0.63813    1.000
    Si5580   Si       0.93782    0.04347    0.73238    1.000
    Si5581   Si       0.99067    0.10010    0.74417    1.000
    N5582    N        0.93358    0.02429    0.69346    1.000
    N5583    N        0.94217    0.22012    0.65742    1.000
    Si5584   Si       0.96507    0.22021    0.69504    1.000
    N5585    N        0.93426    0.15797    0.67881    1.000
    N5586    N        0.98211    0.13866    0.72765    1.000
    Si5587   Si       0.93435    0.18030    0.63963    1.000
    N5588    N        0.93943    0.20287    0.72597    1.000
    Si5589   Si       0.96074    0.02841    0.80163    1.000
    N5590    N        0.96348    0.01846    0.75963    1.000
    N5591    N        0.94293    0.11297    0.83895    1.000
    Si5592   Si       0.96286    0.13051    0.80391    1.000
    N5593    N        0.98994    0.09915    0.78804    1.000
    N5594    N        0.98362    0.15681    0.83126    1.000
    Si5595   Si       0.95142    0.19661    0.76657    1.000
    Si5596   Si       0.95044    0.15149    0.85965    1.000
    N5597    N        0.93421    0.15937    0.78387    1.000
    N5598    N        0.94722    0.04967    0.87352    1.000
    N5599    N        0.93434    0.09070    0.92414    1.000
    N5600    N        0.95353    0.01948    0.93642    1.000
    Si5601   Si       0.95956    0.05718    0.91564    1.000
    Si5602   Si       0.95668    0.01692    0.98274    1.000
    N5603    N        0.98092    0.12679    0.96447    1.000
    N5604    N        0.94225    0.05473    0.99294    1.000
    Si5605   Si       0.94810    0.13306    0.93273    1.000
    N5606    N        0.94239    0.22883    0.95543    1.000
    Si5607   Si       0.97706    0.20862    0.97373    1.000
    N5608    N        0.97053    0.21910    0.87858    1.000
    N5609    N        0.96682    0.15347    0.90037    1.000
    Si5610   Si       0.93493    0.24246    0.88682    1.000
    N5611    N        0.95272    0.31897    0.06464    1.000
    Si5612   Si       0.95387    0.35133    0.09757    1.000
    N5613    N        0.96817    0.35976    0.00267    1.000
    Si5614   Si       0.98225    0.33440    0.03633    1.000
    N5615    N        0.94390    0.38184    0.06038    1.000
    Si5616   Si       0.95533    0.39478    0.02245    1.000
    N5617    N        0.96116    0.44502    0.08225    1.000
    N5618    N        0.96855    0.48837    0.02656    1.000
    Si5619   Si       0.93165    0.41264    0.08817    1.000
    Si5620   Si       0.98703    0.45790    0.04845    1.000
    N5621    N        0.93932    0.38485    0.12076    1.000
    Si5622   Si       0.96646    0.46147    0.12080    1.000
    Si5623   Si       0.94178    0.30235    0.16456    1.000
    Si5624   Si       0.95652    0.29453    0.23754    1.000
    N5625    N        0.98438    0.29242    0.16000    1.000
    N5626    N        0.93178    0.31443    0.20510    1.000
    Si5627   Si       0.98925    0.38641    0.21454    1.000
    N5628    N        0.96629    0.41134    0.18854    1.000
    Si5629   Si       0.98160    0.45182    0.18687    1.000
    N5630    N        0.95362    0.48193    0.19855    1.000
    Si5631   Si       0.93661    0.40530    0.15874    1.000
    N5632    N        0.96527    0.50634    0.12142    1.000
    N5633    N        0.95270    0.31943    0.27203    1.000
    N5634    N        0.94956    0.30058    0.34003    1.000
    Si5635   Si       0.98203    0.35050    0.27938    1.000
    N5636    N        0.98028    0.35982    0.32332    1.000
    Si5637   Si       0.93385    0.26599    0.36457    1.000
    Si5638   Si       0.98603    0.32242    0.34747    1.000
    N5639    N        0.93011    0.38020    0.36526    1.000
    N5640    N        0.96870    0.38222    0.25208    1.000
    Si5641   Si       0.96274    0.39625    0.34110    1.000
    Si5642   Si       0.94328    0.45610    0.30487    1.000
    N5643    N        0.94337    0.41191    0.30566    1.000
    N5644    N        0.98062    0.47498    0.31978    1.000
    Si5645   Si       0.93630    0.40761    0.26322    1.000
    N5646    N        0.93519    0.45469    0.26263    1.000
    N5647    N        0.99209    0.42541    0.36192    1.000
    N5648    N        0.96558    0.31180    0.45322    1.000
    Si5649   Si       0.98025    0.29391    0.41818    1.000
    N5650    N        0.96051    0.26058    0.39971    1.000
    N5651    N        0.98937    0.32333    0.39043    1.000
    N5652    N        0.97046    0.38353    0.41468    1.000
    N5653    N        0.94252    0.44500    0.41023    1.000
    N5654    N        0.97936    0.48673    0.48922    1.000
    Si5655   Si       0.98156    0.42468    0.40730    1.000
    N5656    N        0.94618    0.42335    0.47822    1.000
    N5657    N        0.95324    0.50785    0.37377    1.000
    Si5658   Si       0.98484    0.44418    0.48133    1.000
    N5659    N        0.94890    0.33740    0.58932    1.000
    Si5660   Si       0.95358    0.29574    0.57407    1.000
    Si5661   Si       0.96531    0.36844    0.56222    1.000
    N5662    N        0.94019    0.37071    0.52718    1.000
    N5663    N        0.94206    0.26426    0.59854    1.000
    N5664    N        0.93635    0.30149    0.53433    1.000
    Si5665   Si       0.93499    0.26480    0.51073    1.000
    N5666    N        0.95928    0.40530    0.58554    1.000
    Si5667   Si       0.93048    0.27736    0.70872    1.000
    Si5668   Si       0.97321    0.33901    0.62793    1.000
    N5669    N        0.94473    0.34998    0.65734    1.000
    Si5670   Si       0.97486    0.34384    0.71996    1.000
    N5671    N        0.94203    0.31598    0.72549    1.000
    N5672    N        0.97047    0.26153    0.70294    1.000
    Si5673   Si       0.93971    0.46314    0.64511    1.000
    N5674    N        0.95485    0.38146    0.71426    1.000
    N5675    N        0.96789    0.48764    0.62136    1.000
    Si5676   Si       0.94290    0.39305    0.67359    1.000
    N5677    N        0.97329    0.45910    0.71550    1.000
    N5678    N        0.96570    0.42630    0.65507    1.000
    Si5679   Si       0.94335    0.48931    0.71571    1.000
    Si5680   Si       0.95230    0.28887    0.83514    1.000
    Si5681   Si       0.94177    0.32658    0.76776    1.000
    N5682    N        0.95649    0.32369    0.86311    1.000
    N5683    N        0.93564    0.29312    0.79527    1.000
    N5684    N        0.98159    0.34255    0.76450    1.000
    N5685    N        0.94199    0.38048    0.82854    1.000
    Si5686   Si       0.95216    0.36593    0.86726    1.000
    N5687    N        0.96195    0.41827    0.77216    1.000
    Si5688   Si       0.97363    0.47982    0.82125    1.000
    Si5689   Si       0.97376    0.40318    0.81151    1.000
    N5690    N        0.97157    0.48586    0.77924    1.000
    N5691    N        0.98190    0.44005    0.83419    1.000
    Si5692   Si       0.98503    0.45017    0.75732    1.000
    Si5693   Si       0.93333    0.39238    0.74977    1.000
    Si5694   Si       0.93876    0.27061    0.95250    1.000
    N5695    N        0.95988    0.29652    0.97803    1.000
    N5696    N        0.96617    0.34603    0.93002    1.000
    Si5697   Si       0.94831    0.34031    0.96849    1.000
    N5698    N        0.95145    0.27750    0.91129    1.000
    Si5699   Si       0.97370    0.31206    0.90124    1.000
    Si5700   Si       0.97972    0.38791    0.92404    1.000
    N5701    N        0.94507    0.41264    0.93628    1.000
    N5702    N        0.98448    0.46246    0.96874    1.000
    N5703    N        0.94651    0.48867    0.89927    1.000
    Si5704   Si       0.98679    0.50103    0.98883    1.000
    Si5705   Si       0.94261    0.44249    0.96830    1.000
    N5706    N        0.98442    0.39236    0.88091    1.000
    Si5707   Si       0.98947    0.49284    0.89018    1.000
    N5708    N        0.96202    0.61035    0.08708    1.000
    N5709    N        0.96086    0.60426    0.02371    1.000
    Si5710   Si       0.98669    0.59107    0.05643    1.000
    Si5711   Si       0.94866    0.58889    0.12254    1.000
    Si5712   Si       0.95495    0.65360    0.08023    1.000
    Si5713   Si       0.96631    0.74135    0.03657    1.000
    N5714    N        0.93697    0.71487    0.05610    1.000
    N5715    N        0.98837    0.73335    0.00077    1.000
    N5716    N        0.93844    0.67184    0.11644    1.000
    N5717    N        0.95592    0.74025    0.12043    1.000
    Si5718   Si       0.96573    0.52225    0.20279    1.000
    Si5719   Si       0.94063    0.58778    0.19262    1.000
    N5720    N        0.94007    0.54729    0.17515    1.000
    N5721    N        0.98560    0.57136    0.13584    1.000
    N5722    N        0.98507    0.59939    0.19847    1.000
    N5723    N        0.96246    0.53857    0.24325    1.000
    N5724    N        0.93223    0.60980    0.15555    1.000
    Si5725   Si       0.92860    0.52613    0.13886    1.000
    N5726    N        0.95451    0.66490    0.18328    1.000
    N5727    N        0.94448    0.75235    0.18914    1.000
    Si5728   Si       0.98288    0.74583    0.21082    1.000
    Si5729   Si       0.94279    0.68170    0.22123    1.000
    N5730    N        0.97726    0.70781    0.22707    1.000
    N5731    N        0.95970    0.54801    0.31154    1.000
    Si5732   Si       0.97326    0.51431    0.33543    1.000
    Si5733   Si       0.98332    0.55564    0.27632    1.000
    N5734    N        0.98602    0.59849    0.26756    1.000
    Si5735   Si       0.96702    0.63871    0.28836    1.000
    N5736    N        0.94439    0.65223    0.25156    1.000
    N5737    N        0.95704    0.66697    0.32376    1.000
    N5738    N        0.95391    0.75879    0.35250    1.000
    N5739    N        0.96637    0.55437    0.41021    1.000
    N5740    N        0.94632    0.61738    0.39003    1.000
    N5741    N        0.97956    0.60850    0.46033    1.000
    Si5742   Si       0.97554    0.59698    0.41782    1.000
    Si5743   Si       0.98457    0.57835    0.49268    1.000
    Si5744   Si       0.99045    0.52232    0.39469    1.000
    Si5745   Si       0.94612    0.66198    0.39745    1.000
    N5746    N        0.93259    0.65848    0.43804    1.000
    Si5747   Si       0.94834    0.63829    0.47331    1.000
    N5748    N        0.97752    0.74084    0.40805    1.000
    Si5749   Si       0.93683    0.74045    0.39374    1.000
    N5750    N        0.96396    0.74440    0.48975    1.000
    Si5751   Si       0.98738    0.74317    0.45158    1.000
    N5752    N        0.99013    0.67129    0.39188    1.000
    Si5753   Si       0.96193    0.52051    0.59380    1.000
    N5754    N        0.97805    0.56357    0.60039    1.000
    Si5755   Si       0.96166    0.51543    0.51549    1.000
    N5756    N        0.94960    0.55256    0.49925    1.000
    N5757    N        0.98118    0.51395    0.55483    1.000
    N5758    N        0.94920    0.72306    0.55182    1.000
    N5759    N        0.96659    0.65729    0.56209    1.000
    Si5760   Si       0.94475    0.72522    0.59648    1.000
    Si5761   Si       0.94169    0.68245    0.53829    1.000
    Si5762   Si       0.94278    0.64652    0.59548    1.000
    Si5763   Si       0.98006    0.74244    0.53027    1.000
    N5764    N        0.98278    0.74471    0.60674    1.000
    N5765    N        0.95798    0.67268    0.49844    1.000
    N5766    N        0.93465    0.68499    0.61253    1.000
    N5767    N        0.96548    0.62572    0.62654    1.000
    N5768    N        0.96329    0.52615    0.72416    1.000
    N5769    N        0.96774    0.57311    0.67218    1.000
    Si5770   Si       0.95788    0.58472    0.63123    1.000
    Si5771   Si       0.94470    0.56103    0.70629    1.000
    N5772    N        0.93685    0.58771    0.74052    1.000
    Si5773   Si       0.95959    0.72495    0.69930    1.000
    N5774    N        0.97092    0.70533    0.73607    1.000
    Si5775   Si       0.94065    0.65654    0.69586    1.000
    N5776    N        0.98344    0.64996    0.69341    1.000
    Si5777   Si       0.94440    0.57689    0.78080    1.000
    N5778    N        0.93887    0.61088    0.80704    1.000
    N5779    N        0.98388    0.55910    0.78184    1.000
    Si5780   Si       0.98540    0.52137    0.76053    1.000
    Si5781   Si       0.97011    0.64154    0.80686    1.000
    Si5782   Si       0.96471    0.71764    0.82409    1.000
    N5783    N        0.95597    0.68370    0.79772    1.000
    N5784    N        0.98269    0.70305    0.86215    1.000
    Si5785   Si       0.93419    0.69369    0.75851    1.000
    N5786    N        0.98764    0.74359    0.79722    1.000
    N5787    N        0.98614    0.63575    0.84614    1.000
    Si5788   Si       0.96644    0.61756    0.88227    1.000
    Si5789   Si       0.97148    0.56926    0.94862    1.000
    N5790    N        0.96496    0.52746    0.96098    1.000
    N5791    N        0.98343    0.58485    0.90636    1.000
    Si5792   Si       0.93562    0.50759    0.93626    1.000
    N5793    N        0.93610    0.69640    0.98914    1.000
    N5794    N        0.94473    0.73774    0.91718    1.000
    N5795    N        0.96957    0.64623    0.96722    1.000
    N5796    N        0.96990    0.65628    0.90362    1.000
    Si5797   Si       0.95550    0.69732    0.89708    1.000
    Si5798   Si       0.98209    0.69204    0.98415    1.000
    Si5799   Si       0.95991    0.82062    0.03391    1.000
    N5800    N        0.94780    0.86258    0.10059    1.000
    N5801    N        0.94614    0.77951    0.02475    1.000
    N5802    N        0.96422    0.84650    0.00074    1.000
    N5803    N        0.98814    0.81795    0.06755    1.000
    Si5804   Si       0.94640    0.97354    0.04536    1.000
    N5805    N        0.97643    0.94205    0.04311    1.000
    N5806    N        0.93694    0.98230    0.00296    1.000
    N5807    N        0.97394    0.86062    0.17783    1.000
    Si5808   Si       0.94124    0.76925    0.14850    1.000
    N5809    N        0.96302    0.80655    0.14357    1.000
    Si5810   Si       0.94984    0.84909    0.14293    1.000
    N5811    N        0.96302    0.82254    0.23345    1.000
    Si5812   Si       0.96705    0.90216    0.19026    1.000
    N5813    N        0.95709    0.97383    0.14934    1.000
    N5814    N        0.95781    0.90946    0.23128    1.000
    N5815    N        0.92997    0.91643    0.17241    1.000
    Si5816   Si       0.96390    0.84300    0.30420    1.000
    N5817    N        0.96071    0.82934    0.34618    1.000
    Si5818   Si       0.97715    0.79434    0.26235    1.000
    N5819    N        0.95152    0.76588    0.28181    1.000
    Si5820   Si       0.97265    0.79407    0.36597    1.000
    Si5821   Si       0.93625    0.86047    0.36827    1.000
    N5822    N        0.92807    0.83170    0.28393    1.000
    N5823    N        0.97507    0.88288    0.29752    1.000
    N5824    N        0.98054    0.94881    0.33045    1.000
    Si5825   Si       0.98153    0.96521    0.28923    1.000
    N5826    N        0.93933    0.95753    0.27572    1.000
    Si5827   Si       0.98119    0.97327    0.36907    1.000
    N5828    N        0.96535    0.89360    0.36670    1.000
    Si5829   Si       0.98920    0.90712    0.33212    1.000
    N5830    N        0.97321    0.81009    0.40880    1.000
    N5831    N        0.94920    0.00158    0.37906    1.000
    Si5832   Si       0.98617    0.90181    0.47318    1.000
    Si5833   Si       0.97859    0.90639    0.40571    1.000
    N5834    N        0.96160    0.99309    0.45148    1.000
    N5835    N        0.98780    0.94941    0.40306    1.000
    Si5836   Si       0.93846    0.98596    0.48623    1.000
    N5837    N        0.95725    0.89579    0.44149    1.000
    Si5838   Si       0.96899    0.86597    0.53437    1.000
    N5839    N        0.96557    0.83150    0.50553    1.000
    Si5840   Si       0.97660    0.78647    0.59345    1.000
    N5841    N        0.94010    0.85944    0.56497    1.000
    N5842    N        0.93123    0.79640    0.59403    1.000
    Si5843   Si       0.93907    0.97454    0.55933    1.000
    N5844    N        0.95521    0.98774    0.59694    1.000
    N5845    N        0.95926    0.98981    0.52402    1.000
    N5846    N        0.96320    0.89833    0.50835    1.000
    N5847    N        0.94155    0.76245    0.71100    1.000
    Si5848   Si       0.94413    0.80184    0.69053    1.000
    N5849    N        0.93884    0.83504    0.71916    1.000
    N5850    N        0.98277    0.79786    0.66964    1.000
    N5851    N        0.98022    0.98166    0.66115    1.000
    Si5852   Si       0.98206    0.96426    0.62154    1.000
    Si5853   Si       0.94163    0.98236    0.68160    1.000
    N5854    N        0.94985    0.96006    0.71866    1.000
    N5855    N        0.96720    0.92539    0.63070    1.000
    Si5856   Si       0.97230    0.78487    0.79414    1.000
    Si5857   Si       0.94540    0.81820    0.85836    1.000
    N5858    N        0.97764    0.79838    0.83498    1.000
    N5859    N        0.94291    0.86660    0.78937    1.000
    N5860    N        0.95515    0.85951    0.86542    1.000
    Si5861   Si       0.96181    0.84881    0.75505    1.000
    N5862    N        0.98562    0.81492    0.76686    1.000
    Si5863   Si       0.96659    0.87808    0.82676    1.000
    N5864    N        0.95147    0.91999    0.83417    1.000
    Si5865   Si       0.95533    0.95361    0.80729    1.000
    N5866    N        0.95659    0.99362    0.82716    1.000
    Si5867   Si       0.94255    0.00732    0.86612    1.000
    N5868    N        0.98800    0.95602    0.77884    1.000
    Si5869   Si       0.97703    0.98096    0.74333    1.000
    Si5870   Si       0.96615    0.77518    0.91565    1.000
    N5871    N        0.93647    0.80099    0.89631    1.000
    N5872    N        0.97046    0.79177    0.95468    1.000
    Si5873   Si       0.93684    0.86928    0.97701    1.000
    N5874    N        0.98342    0.88890    0.92340    1.000
    Si5875   Si       0.94387    0.88194    0.90441    1.000
    Si5876   Si       0.98633    0.91642    0.95728    1.000
    N5877    N        0.94838    0.91231    0.97656    1.000
    N5878    N        0.98139    0.99435    0.88443    1.000
    N5879    N        0.99013    0.95552    0.94315    1.000
